@<TRIPOS>MOLECULE
default_name
  156   156     9     0     1 
SMALL
USER_CHARGES
@<TRIPOS>ATOM
  1 N      34.739000   13.036000   10.937000 N     1 NCYX o	4   0.2069 ****
  2 H1     35.700004   13.197686   11.202388 H     1 NCYX o	4   0.1815 ****
  3 H2     34.365518   13.884840   10.536896 H     1 NCYX o	4   0.1815 ****
  4 H3     34.686016   12.168937   10.421739 H     1 NCYX o	4   0.1815 ****
  5 CA     33.791000   12.759000   12.426000 C     1 NCYX o	4   0.1055 ****
  6 HA     33.112437   13.611721   12.403233 H     1 NCYX o	4   0.0922 ****
  7 CB     32.563000   10.838000   12.983000 C     1 NCYX o	4  -0.0277 ****
  8 HB2    33.247059   10.039441   13.270169 H     1 NCYX o	4   0.0680 ****
  9 HB3    31.895984   11.061284   13.815667 H     1 NCYX o	4   0.0680 ****
 10 SG     30.851000    8.888000   13.568000 S     1 NCYX o	4  -0.0984 ****
 11 C      34.779000   14.957000   12.365000 C     1 NCYX o	4   0.6123 ****
 12 O      35.215000   15.063000   11.058000 O     1 NCYX o	4  -0.5713 ****
 13 N      35.681000   16.621000   11.761000 N     2 LEU    -0.4157 ****
 14 H      35.081080   16.407897   12.545080 H     2 LEU     0.2719 ****
 15 CA     36.517000   18.659000   11.606000 C     2 LEU    -0.0518 ****
 16 HA     36.734885   18.394862   10.571178 H     2 LEU     0.0922 ****
 17 CB     36.448000   20.848000   11.772000 C     2 LEU    -0.1102 ****
 18 HB2    35.835648   20.685898   12.659044 H     2 LEU     0.0457 ****
 19 HB3    37.494902   20.930687   12.063991 H     2 LEU     0.0457 ****
 20 CG     35.866000   22.559000   10.853000 C     2 LEU     0.3531 ****
 21 HG     36.691618   22.731821   10.162646 H     2 LEU    -0.0361 ****
 22 CD1    34.467000   22.736000   10.072000 C     2 LEU    -0.4121 ****
 23 HD11   33.640848   22.563774   10.761863 H     2 LEU     0.1000 ****
 24 HD12   34.399748   23.747184    9.670647 H     2 LEU     0.1000 ****
 25 HD13   34.413074   22.016895    9.254638 H     2 LEU     0.1000 ****
 26 CD2    35.744000   24.356000   11.393000 C     2 LEU    -0.4121 ****
 27 HD21   36.729205   24.713703   11.692197 H     2 LEU     0.1000 ****
 28 HD22   35.374650   24.960572   10.564643 H     2 LEU     0.1000 ****
 29 HD23   35.057324   24.436894   12.235634 H     2 LEU     0.1000 ****
 30 C      35.554000   19.437000   10.831000 C     2 LEU     0.5973 ****
 31 O      35.917000   20.037000    9.822000 O     2 LEU    -0.5679 ****
 32 N      34.695000   19.596000   12.159000 N     3 LEU    -0.4157 ****
 33 H      34.714924   20.446951   12.702676 H     3 LEU     0.2719 ****
 34 CA     34.885000   18.340000   12.846000 C     3 LEU    -0.0518 ****
 35 HA     34.466118   17.699518   12.069843 H     3 LEU     0.0922 ****
 36 CB     36.405000   17.451000   13.623000 C     3 LEU    -0.1102 ****
 37 HB2    36.097430   16.407210   13.686269 H     3 LEU     0.0457 ****
 38 HB3    37.181824   17.555056   12.865493 H     3 LEU     0.0457 ****
 39 CG     36.937000   17.893000   14.944000 C     3 LEU     0.3531 ****
 40 HG     37.176182   18.956417   14.950114 H     3 LEU    -0.0361 ****
 41 CD1    35.828000   17.628000   15.904000 C     3 LEU    -0.4121 ****
 42 HD11   35.588552   16.564639   15.898784 H     3 LEU     0.1000 ****
 43 HD12   36.135571   17.925730   16.906426 H     3 LEU     0.1000 ****
 44 HD13   34.947734   18.199566   15.609816 H     3 LEU     0.1000 ****
 45 CD2    38.194000   17.210000   15.487000 C     3 LEU    -0.4121 ****
 46 HD21   39.018758   17.358625   14.790018 H     3 LEU     0.1000 ****
 47 HD22   38.453714   17.641393   16.453721 H     3 LEU     0.1000 ****
 48 HD23   38.006218   16.142759   15.604613 H     3 LEU     0.1000 ****
 49 C      33.731000   17.745000   13.358000 C     3 LEU     0.5973 ****
 50 O      33.388000   18.044000   14.484000 O     3 LEU    -0.5679 ****
 51 N      33.193000   16.891000   12.396000 N     4 ARG    -0.3479 ****
 52 H      33.366551   16.773876   11.407941 H     4 ARG     0.2747 ****
 53 CA     32.288000   16.071000   12.993000 C     4 ARG    -0.2637 ****
 54 HA     32.644621   15.629813   13.923739 H     4 ARG     0.1560 ****
 55 CB     31.156000   17.015000   13.310000 C     4 ARG    -0.0007 ****
 56 HB2    30.382941   16.500652   13.880899 H     4 ARG     0.0327 ****
 57 HB3    31.522890   17.867273   13.881947 H     4 ARG     0.0327 ****
 58 CG     30.565000   17.509000   11.974000 C     4 ARG     0.0390 ****
 59 HG2    29.897296   18.344217   12.185387 H     4 ARG     0.0285 ****
 60 HG3    31.386312   17.851424   11.344481 H     4 ARG     0.0285 ****
 61 CD     29.801000   16.424000   11.257000 C     4 ARG     0.0486 ****
 62 HD2    30.540540   15.686498   10.945117 H     4 ARG     0.0687 ****
 63 HD3    29.135869   15.980034   11.997672 H     4 ARG     0.0687 ****
 64 NE     29.037000   16.802000   10.132000 N     4 ARG    -0.5295 ****
 65 HE     28.881124   17.762236    9.860431 H     4 ARG     0.3456 ****
 66 CZ     28.554000   15.818000    9.335000 C     4 ARG     0.8076 ****
 67 NH1    28.562000   14.546000    9.534000 N     4 ARG    -0.8627 ****
 68 HH11   28.969278   14.172784   10.379538 H     4 ARG     0.4478 ****
 69 HH12   28.160962   13.927411    8.843626 H     4 ARG     0.4478 ****
 70 NH2    27.944000   16.287000    8.255000 N     4 ARG    -0.8627 ****
 71 HH21   27.882962   17.284108    8.106170 H     4 ARG     0.4478 ****
 72 HH22   27.543241   15.644945    7.586227 H     4 ARG     0.4478 ****
 73 C      31.787000   14.954000   12.121000 C     4 ARG     0.7341 ****
 74 O      32.272000   14.576000   11.067000 O     4 ARG    -0.5894 ****
 75 N      30.620000   14.524000   12.797000 N     5 MET    -0.4157 ****
 76 H      29.976668   15.302512   12.808889 H     5 MET     0.2719 ****
 77 CA     30.081000   13.196000   12.841000 C     5 MET    -0.0237 ****
 78 HA     29.992182   12.631775   11.912635 H     5 MET     0.0880 ****
 79 CB     31.290000   12.743000   13.554000 C     5 MET     0.0342 ****
 80 HB2    31.179210   11.659185   13.519795 H     5 MET     0.0241 ****
 81 HB3    32.082491   13.048436   12.870797 H     5 MET     0.0241 ****
 82 CG     31.681000   13.211000   15.100000 C     5 MET     0.0018 ****
 83 HG2    30.704286   13.654092   15.294421 H     5 MET     0.0440 ****
 84 HG3    31.700112   12.191550   15.485302 H     5 MET     0.0440 ****
 85 SD     33.061000   14.269000   16.007000 S     5 MET    -0.2737 ****
 86 CE     32.189000   15.189000   17.337000 C     5 MET    -0.0536 ****
 87 HE1    31.719067   14.481945   18.020620 H     5 MET     0.0684 ****
 88 HE2    32.904643   15.802198   17.884671 H     5 MET     0.0684 ****
 89 HE3    31.425228   15.829434   16.895867 H     5 MET     0.0684 ****
 90 C      29.226000   12.361000   13.882000 C     5 MET     0.5973 ****
 91 O      29.217000   12.669000   15.084000 O     5 MET    -0.5679 ****
 92 N      28.837000   11.075000   13.564000 N     6 ARG    -0.3479 ****
 93 H      29.318882   10.536636   12.858271 H     6 ARG     0.2747 ****
 94 CA     27.948000   10.367000   14.493000 C     6 ARG    -0.2637 ****
 95 HA     28.423491   10.181561   15.456130 H     6 ARG     0.1560 ****
 96 CB     26.758000   11.292000   14.708000 C     6 ARG    -0.0007 ****
 97 HB2    27.167418   12.226487   15.091680 H     6 ARG     0.0327 ****
 98 HB3    26.326328   11.462840   13.721809 H     6 ARG     0.0327 ****
 99 CG     25.683000   10.788000   15.649000 C     6 ARG     0.0390 ****
100 HG2    24.914511   11.554470   15.749241 H     6 ARG     0.0285 ****
101 HG3    25.241583    9.884464   15.228433 H     6 ARG     0.0285 ****
102 CD     26.267000   10.477000   17.013000 C     6 ARG     0.0486 ****
103 HD2    27.068931    9.746799   16.904319 H     6 ARG     0.0687 ****
104 HD3    26.666027   11.391499   17.451825 H     6 ARG     0.0687 ****
105 NE     25.268000    9.937000   17.900000 N     6 ARG    -0.5295 ****
106 HE     24.338787    9.773329   17.539618 H     6 ARG     0.3456 ****
107 CZ     25.526000    9.615000   19.182000 C     6 ARG     0.8076 ****
108 NH1    26.649000    9.776000   19.787000 N     6 ARG    -0.8627 ****
109 HH11   27.432960   10.176526   19.291938 H     6 ARG     0.4478 ****
110 HH12   26.741878    9.501181   20.754444 H     6 ARG     0.4478 ****
111 NH2    24.501000    9.110000   19.872000 N     6 ARG    -0.8627 ****
112 HH21   23.603535    8.992499   19.423836 H     6 ARG     0.4478 ****
113 HH22   24.627585    8.847704   20.839097 H     6 ARG     0.4478 ****
114 C      27.260000    9.281000   13.705000 C     6 ARG     0.7341 ****
115 O      27.317000    9.338000   12.476000 O     6 ARG    -0.5894 ****
116 N      26.383000    8.485000   14.411000 N     7 SER    -0.4157 ****
117 H      26.181655    8.727948   15.370446 H     7 SER     0.2719 ****
118 CA     25.582000    7.436000   13.778000 C     7 SER    -0.0249 ****
119 HA     25.036054    7.794219   12.905233 H     7 SER     0.0843 ****
120 CB     26.555000    6.442000   13.343000 C     7 SER     0.2117 ****
121 HB2    27.078329    6.032691   14.207113 H     7 SER     0.0352 ****
122 HB3    26.049294    5.636731   12.810175 H     7 SER     0.0352 ****
123 OG     27.467000    7.053000   12.498000 O     7 SER    -0.6546 ****
124 HG     28.113844    6.407175   12.204567 H     7 SER     0.4275 ****
125 C      24.869000    6.831000   14.941000 C     7 SER     0.5973 ****
126 O      24.763000    7.415000   16.018000 O     7 SER    -0.5679 ****
127 N      24.363000    5.596000   14.736000 N     8 ILE    -0.4157 ****
128 H      24.571260    4.987919   13.956921 H     8 ILE     0.2719 ****
129 CA     23.368000    5.186000   15.663000 C     8 ILE    -0.0597 ****
130 HA     23.824410    4.637802   16.487177 H     8 ILE     0.0869 ****
131 CB     22.403000    6.126000   16.186000 C     8 ILE     0.1303 ****
132 HB     22.843462    6.858043   16.862910 H     8 ILE     0.0187 ****
133 CG2    21.931000    6.818000   14.939000 C     8 ILE    -0.3204 ****
134 HG21   21.489964    6.086617   14.261750 H     8 ILE     0.0882 ****
135 HG22   21.184068    7.567878   15.199533 H     8 ILE     0.0882 ****
136 HG23   22.775999    7.302329   14.449612 H     8 ILE     0.0882 ****
137 CG1    21.383000    5.499000   17.118000 C     8 ILE    -0.0430 ****
138 HG12   20.648206    4.919142   16.559481 H     8 ILE     0.0236 ****
139 HG13   21.868445    4.857470   17.853447 H     8 ILE     0.0236 ****
140 CD1    20.691000    6.641000   17.825000 C     8 ILE    -0.0660 ****
141 HD11   20.204898    7.282753   17.090182 H     8 ILE     0.0186 ****
142 HD12   19.943037    6.244194   18.511436 H     8 ILE     0.0186 ****
143 HD13   21.425138    7.221083   18.384146 H     8 ILE     0.0186 ****
144 C      22.776000    4.079000   14.854000 C     8 ILE     0.5973 ****
145 O      22.694000    3.806000   13.672000 O     8 ILE    -0.5679 ****
146 N      23.519000    3.380000   15.716000 N     9 CCYX o	4	  -0.3821 ****
147 H      23.179740    3.512313   16.658070 H     9 CCYX o	4	   0.2681 ****
148 CA     25.349000    3.405000   15.430000 C     9 CCYX o	4	  -0.1318 ****
149 HA     25.249838    2.722370   14.586032 H     9 CCYX o	4	   0.0938 ****
150 CB     27.091000    4.715000   15.077000 C     9 CCYX o	4	  -0.1943 ****
151 HB2    27.774757    4.647036   15.923142 H     9 CCYX o	4	   0.1228 ****
152 HB3    27.605058    4.399993   14.168917 H     9 CCYX o	4	   0.1228 ****
153 SG     29.022000    6.588000   14.552000 S     9 CCYX o	4	  -0.0529 ****
154 C      24.003000    1.879000   16.147000 C     9 CCYX o	4	   0.7618 ****
155 O      23.589000    1.712000   17.289000 O     9 CCYX o	4	  -0.8041 ****
156 OXT    22.646000    1.397000   15.280000 O     9 CCYX o	4	  -0.8041 ****
@<TRIPOS>BOND
    1    11    12 1
    2    11    13 1
    3    10   153 1
    4     7     8 1
    5     7     9 1
    6     7    10 1
    7     5     6 1
    8     5     7 1
    9     5    11 1
   10     1     2 1
   11     1     3 1
   12     1     4 1
   13     1     5 1
   14    30    31 1
   15    30    32 1
   16    26    27 1
   17    26    28 1
   18    26    29 1
   19    22    23 1
   20    22    24 1
   21    22    25 1
   22    20    21 1
   23    20    22 1
   24    20    26 1
   25    17    18 1
   26    17    19 1
   27    17    20 1
   28    15    16 1
   29    15    17 1
   30    15    30 1
   31    13    14 1
   32    13    15 1
   33    49    50 1
   34    49    51 1
   35    45    46 1
   36    45    47 1
   37    45    48 1
   38    41    42 1
   39    41    43 1
   40    41    44 1
   41    39    40 1
   42    39    41 1
   43    39    45 1
   44    36    37 1
   45    36    38 1
   46    36    39 1
   47    34    35 1
   48    34    36 1
   49    34    49 1
   50    32    33 1
   51    32    34 1
   52    73    74 1
   53    73    75 1
   54    70    71 1
   55    70    72 1
   56    67    68 1
   57    67    69 1
   58    66    67 1
   59    66    70 1
   60    64    65 1
   61    64    66 1
   62    61    62 1
   63    61    63 1
   64    61    64 1
   65    58    59 1
   66    58    60 1
   67    58    61 1
   68    55    56 1
   69    55    57 1
   70    55    58 1
   71    53    54 1
   72    53    55 1
   73    53    73 1
   74    51    52 1
   75    51    53 1
   76    90    91 1
   77    90    92 1
   78    86    87 1
   79    86    88 1
   80    86    89 1
   81    85    86 1
   82    82    83 1
   83    82    84 1
   84    82    85 1
   85    79    80 1
   86    79    81 1
   87    79    82 1
   88    77    78 1
   89    77    79 1
   90    77    90 1
   91    75    76 1
   92    75    77 1
   93   114   115 1
   94   114   116 1
   95   111   112 1
   96   111   113 1
   97   108   109 1
   98   108   110 1
   99   107   108 1
  100   107   111 1
  101   105   106 1
  102   105   107 1
  103   102   103 1
  104   102   104 1
  105   102   105 1
  106    99   100 1
  107    99   101 1
  108    99   102 1
  109    96    97 1
  110    96    98 1
  111    96    99 1
  112    94    95 1
  113    94    96 1
  114    94   114 1
  115    92    93 1
  116    92    94 1
  117   125   126 1
  118   125   127 1
  119   123   124 1
  120   120   121 1
  121   120   122 1
  122   120   123 1
  123   118   119 1
  124   118   120 1
  125   118   125 1
  126   116   117 1
  127   116   118 1
  128   144   145 1
  129   144   146 1
  130   140   141 1
  131   140   142 1
  132   140   143 1
  133   137   138 1
  134   137   139 1
  135   137   140 1
  136   133   134 1
  137   133   135 1
  138   133   136 1
  139   131   132 1
  140   131   133 1
  141   131   137 1
  142   129   130 1
  143   129   131 1
  144   129   144 1
  145   127   128 1
  146   127   129 1
  147   154   155 1
  148   154   156 1
  149   150   151 1
  150   150   152 1
  151   150   153 1
  152   148   149 1
  153   148   150 1
  154   148   154 1
  155   146   147 1
  156   146   148 1
@<TRIPOS>SUBSTRUCTURE
      1 NCYX              1 ****               0 ****  **** 
      2  LEU             13 ****               0 ****  **** 
      3  LEU             32 ****               0 ****  **** 
      4  ARG             51 ****               0 ****  **** 
      5  MET             75 ****               0 ****  **** 
      6  ARG             92 ****               0 ****  **** 
      7  SER            116 ****               0 ****  **** 
      8  ILE            127 ****               0 ****  **** 
      9 CCYX            146 ****               0 ****  **** 
