@<TRIPOS>MOLECULE
default_name
  214   220    14     0     1 
SMALL
USER_CHARGES
@<TRIPOS>ATOM
  1 N      29.320000   21.540000    7.270000 N     1 CYX    -0.4157 ****
  2 H      28.540000   20.950000    7.530000 H     1 CYX     0.2719 ****
  3 CA     30.590000   21.050000    7.770000 C     1 CYX     0.0429 ****
  4 HA     31.420000   21.490000    7.230000 H     1 CYX     0.0766 ****
  5 CB     30.610000   19.560000    7.450000 C     1 CYX    -0.0790 ****
  6 HB2    29.680000   19.060000    7.720000 H     1 CYX     0.0910 ****
  7 HB3    31.400000   19.050000    8.000000 H     1 CYX     0.0910 ****
  8 SG     31.020000   18.960000    5.790000 S     1 CYX    -0.1081 ****
  9 C      30.800000   21.300000    9.260000 C     1 CYX     0.5973 ****
 10 O      29.840000   21.400000   10.020000 O     1 CYX    -0.5679 ****
 11 N      32.090000   21.410000    9.590000 N     2 ASN    -0.4157 ****
 12 H      32.760000   21.500000    8.840000 H     2 ASN     0.2719 ****
 13 CA     32.590000   21.740000   10.910000 C     2 ASN     0.0143 ****
 14 HA     31.840000   21.520000   11.660000 H     2 ASN     0.1048 ****
 15 CB     33.730000   20.760000   11.200000 C     2 ASN    -0.2041 ****
 16 HB2    34.440000   20.850000   10.370000 H     2 ASN     0.0797 ****
 17 HB3    34.150000   20.810000   12.200000 H     2 ASN     0.0797 ****
 18 CG     33.100000   19.380000   11.130000 C     2 ASN     0.7130 ****
 19 OD1    32.660000   18.870000   12.160000 O     2 ASN    -0.5931 ****
 20 ND2    33.130000   18.690000    9.990000 N     2 ASN    -0.9191 ****
 21 HD21   33.340000   19.090000    9.090000 H     2 ASN     0.4196 ****
 22 HD22   32.680000   17.780000    9.980000 H     2 ASN     0.4196 ****
 23 C      32.860000   23.230000   11.020000 C     2 ASN     0.5973 ****
 24 O      33.930000   23.650000   11.470000 O     2 ASN    -0.5679 ****
 25 N      31.930000   24.070000   10.560000 N     3 VAL    -0.4157 ****
 26 H      31.240000   23.640000    9.950000 H     3 VAL     0.2719 ****
 27 CA     31.960000   25.510000   10.690000 C     3 VAL    -0.0875 ****
 28 HA     32.380000   25.710000   11.670000 H     3 VAL     0.0969 ****
 29 CB     30.600000   26.200000   10.690000 C     3 VAL     0.2985 ****
 30 HB     30.690000   27.280000   10.580000 H     3 VAL    -0.0297 ****
 31 CG1    29.660000   25.740000    9.580000 C     3 VAL    -0.3192 ****
 32 HG11   30.100000   26.010000    8.620000 H     3 VAL     0.0791 ****
 33 HG12   28.690000   26.220000    9.710000 H     3 VAL     0.0791 ****
 34 HG13   29.480000   24.670000    9.480000 H     3 VAL     0.0791 ****
 35 CG2    29.880000   25.880000   12.000000 C     3 VAL    -0.3192 ****
 36 HG21   28.980000   26.500000   12.030000 H     3 VAL     0.0791 ****
 37 HG22   30.510000   26.270000   12.800000 H     3 VAL     0.0791 ****
 38 HG23   29.700000   24.820000   12.140000 H     3 VAL     0.0791 ****
 39 C      32.840000   26.160000    9.630000 C     3 VAL     0.5973 ****
 40 O      32.960000   25.590000    8.550000 O     3 VAL    -0.5679 ****
 41 N      33.540000   27.270000    9.880000 N     4 PRO    -0.2548 ****
 42 CD     33.370000   28.170000   11.010000 C     4 PRO     0.0192 ****
 43 HD2    32.320000   28.430000   11.110000 H     4 PRO     0.0391 ****
 44 HD3    33.840000   27.770000   11.900000 H     4 PRO     0.0391 ****
 45 CG     34.190000   29.400000   10.620000 C     4 PRO     0.0189 ****
 46 HG2    33.530000   30.050000   10.060000 H     4 PRO     0.0213 ****
 47 HG3    34.630000   29.860000   11.510000 H     4 PRO     0.0213 ****
 48 CB     35.250000   28.890000    9.650000 C     4 PRO    -0.0070 ****
 49 HB2    35.610000   29.590000    8.900000 H     4 PRO     0.0253 ****
 50 HB3    36.080000   28.470000   10.230000 H     4 PRO     0.0253 ****
 51 CA     34.500000   27.770000    8.930000 C     4 PRO    -0.0266 ****
 52 HA     35.230000   26.980000    8.740000 H     4 PRO     0.0641 ****
 53 C      33.780000   28.390000    7.740000 C     4 PRO     0.5896 ****
 54 O      32.680000   28.900000    7.890000 O     4 PRO    -0.5748 ****
 55 N      34.450000   28.300000    6.580000 N     5 ASP    -0.5163 ****
 56 H      35.230000   27.660000    6.590000 H     5 ASP     0.2936 ****
 57 CA     34.390000   29.080000    5.360000 C     5 ASP     0.0381 ****
 58 HA     33.360000   29.400000    5.220000 H     5 ASP     0.0880 ****
 59 CB     35.210000   30.370000    5.480000 C     5 ASP    -0.0303 ****
 60 HB2    35.410000   30.790000    4.500000 H     5 ASP    -0.0122 ****
 61 HB3    34.540000   31.060000    5.990000 H     5 ASP    -0.0122 ****
 62 CG     36.590000   30.210000    6.100000 C     5 ASP     0.7994 ****
 63 OD1    36.960000   31.130000    6.860000 O     5 ASP    -0.8014 ****
 64 OD2    37.320000   29.220000    5.870000 O     5 ASP    -0.8014 ****
 65 C      34.770000   28.240000    4.150000 C     5 ASP     0.5366 ****
 66 O      35.470000   28.690000    3.250000 O     5 ASP    -0.5819 ****
 67 N      34.250000   27.010000    4.070000 N     6 VAL    -0.4157 ****
 68 H      33.710000   26.620000    4.820000 H     6 VAL     0.2719 ****
 69 CA     34.560000   26.150000    2.940000 C     6 VAL    -0.0875 ****
 70 HA     34.780000   26.780000    2.080000 H     6 VAL     0.0969 ****
 71 CB     35.670000   25.170000    3.320000 C     6 VAL     0.2985 ****
 72 HB     35.860000   24.510000    2.470000 H     6 VAL    -0.0297 ****
 73 CG1    36.980000   25.890000    3.570000 C     6 VAL    -0.3192 ****
 74 HG11   36.980000   26.870000    3.080000 H     6 VAL     0.0791 ****
 75 HG12   37.750000   25.200000    3.230000 H     6 VAL     0.0791 ****
 76 HG13   37.050000   26.230000    4.610000 H     6 VAL     0.0791 ****
 77 CG2    35.250000   24.200000    4.420000 C     6 VAL    -0.3192 ****
 78 HG21   35.250000   24.650000    5.410000 H     6 VAL     0.0791 ****
 79 HG22   36.030000   23.440000    4.430000 H     6 VAL     0.0791 ****
 80 HG23   34.330000   23.640000    4.200000 H     6 VAL     0.0791 ****
 81 C      33.420000   25.280000    2.450000 C     6 VAL     0.5973 ****
 82 O      32.310000   25.370000    2.980000 O     6 VAL    -0.5679 ****
 83 N      33.700000   24.470000    1.420000 N     7 TYR    -0.4157 ****
 84 H      34.570000   24.720000    0.980000 H     7 TYR     0.2719 ****
 85 CA     32.750000   23.540000    0.870000 C     7 TYR    -0.0014 ****
 86 HA     31.810000   24.030000    0.620000 H     7 TYR     0.0876 ****
 87 CB     33.180000   22.890000   -0.450000 C     7 TYR    -0.0152 ****
 88 HB2    34.110000   22.330000   -0.390000 H     7 TYR     0.0295 ****
 89 HB3    32.470000   22.100000   -0.650000 H     7 TYR     0.0295 ****
 90 CG     33.350000   23.770000   -1.660000 C     7 TYR    -0.0011 ****
 91 CD1    32.300000   23.910000   -2.580000 C     7 TYR    -0.1906 ****
 92 HD1    31.340000   23.500000   -2.290000 H     7 TYR     0.1699 ****
 93 CE1    32.530000   24.520000   -3.820000 C     7 TYR    -0.2341 ****
 94 HE1    31.670000   24.690000   -4.450000 H     7 TYR     0.1656 ****
 95 CZ     33.720000   25.240000   -4.020000 C     7 TYR     0.3226 ****
 96 OH     33.890000   26.000000   -5.140000 O     7 TYR    -0.5579 ****
 97 HH     34.720000   26.490000   -5.090000 H     7 TYR     0.3992 ****
 98 CE2    34.730000   25.120000   -3.040000 C     7 TYR    -0.2341 ****
 99 HE2    35.670000   25.550000   -3.330000 H     7 TYR     0.1656 ****
100 CD2    34.600000   24.360000   -1.880000 C     7 TYR    -0.1906 ****
101 HD2    35.380000   24.230000   -1.140000 H     7 TYR     0.1699 ****
102 C      32.490000   22.350000    1.790000 C     7 TYR     0.5973 ****
103 O      33.410000   21.900000    2.480000 O     7 TYR    -0.5679 ****
104 N      31.270000   21.840000    1.700000 N     8 CYX    -0.4157 ****
105 H      30.600000   22.340000    1.140000 H     8 CYX     0.2719 ****
106 CA     30.740000   20.660000    2.360000 C     8 CYX     0.0429 ****
107 HA     31.510000   19.950000    2.660000 H     8 CYX     0.0766 ****
108 CB     30.220000   21.010000    3.750000 C     8 CYX    -0.0790 ****
109 HB2    31.070000   21.380000    4.320000 H     8 CYX     0.0910 ****
110 HB3    29.490000   21.830000    3.730000 H     8 CYX     0.0910 ****
111 SG     29.500000   19.560000    4.570000 S     8 CYX    -0.1081 ****
112 C      29.560000   20.120000    1.570000 C     8 CYX     0.5973 ****
113 O      28.660000   20.860000    1.190000 O     8 CYX    -0.5679 ****
114 N      29.510000   18.840000    1.200000 N     9 PRO    -0.2548 ****
115 CD     30.260000   17.740000    1.780000 C     9 PRO     0.0192 ****
116 HD2    31.310000   17.840000    1.490000 H     9 PRO     0.0391 ****
117 HD3    30.130000   17.670000    2.850000 H     9 PRO     0.0391 ****
118 CG     29.740000   16.430000    1.190000 C     9 PRO     0.0189 ****
119 HG2    30.410000   15.580000    1.070000 H     9 PRO     0.0213 ****
120 HG3    28.910000   16.100000    1.810000 H     9 PRO     0.0213 ****
121 CB     29.100000   16.890000   -0.110000 C     9 PRO    -0.0070 ****
122 HB2    29.880000   17.000000   -0.860000 H     9 PRO     0.0253 ****
123 HB3    28.300000   16.250000   -0.500000 H     9 PRO     0.0253 ****
124 CA     28.530000   18.250000    0.320000 C     9 PRO    -0.0266 ****
125 HA     27.640000   18.120000    0.940000 H     9 PRO     0.0641 ****
126 C      28.210000   19.000000   -0.960000 C     9 PRO     0.5896 ****
127 O      27.090000   19.030000   -1.480000 O     9 PRO    -0.5748 ****
128 N      29.150000   19.730000   -1.560000 N    10 ASN    -0.4157 ****
129 H      30.000000   19.890000   -1.040000 H    10 ASN     0.2719 ****
130 CA     29.150000   20.310000   -2.890000 C    10 ASN     0.0143 ****
131 HA     28.390000   19.770000   -3.460000 H    10 ASN     0.1048 ****
132 CB     30.450000   19.800000   -3.520000 C    10 ASN    -0.2041 ****
133 HB2    30.510000   20.100000   -4.570000 H    10 ASN     0.0797 ****
134 HB3    30.400000   18.710000   -3.590000 H    10 ASN     0.0797 ****
135 CG     31.780000   20.180000   -2.880000 C    10 ASN     0.7130 ****
136 OD1    31.890000   19.970000   -1.670000 O    10 ASN    -0.5931 ****
137 ND2    32.740000   20.780000   -3.580000 N    10 ASN    -0.9191 ****
138 HD21   32.700000   20.930000   -4.580000 H    10 ASN     0.4196 ****
139 HD22   33.570000   21.130000   -3.110000 H    10 ASN     0.4196 ****
140 C      28.880000   21.810000   -3.000000 C    10 ASN     0.5973 ****
141 O      29.010000   22.290000   -4.120000 O    10 ASN    -0.5679 ****
142 N      28.640000   22.510000   -1.890000 N    11 LYS    -0.3479 ****
143 H      28.700000   22.060000   -0.980000 H    11 LYS     0.2747 ****
144 CA     28.700000   23.950000   -1.810000 C    11 LYS    -0.2400 ****
145 HA     29.380000   24.140000   -2.650000 H    11 LYS     0.1426 ****
146 CB     27.330000   24.530000   -2.140000 C    11 LYS    -0.0094 ****
147 HB2    27.500000   25.600000   -2.240000 H    11 LYS     0.0362 ****
148 HB3    27.020000   23.960000   -3.020000 H    11 LYS     0.0362 ****
149 CG     26.310000   24.300000   -1.030000 C    11 LYS     0.0187 ****
150 HG2    26.170000   23.230000   -0.880000 H    11 LYS     0.0103 ****
151 HG3    26.810000   24.620000   -0.120000 H    11 LYS     0.0103 ****
152 CD     24.930000   24.930000   -1.220000 C    11 LYS    -0.0479 ****
153 HD2    24.360000   24.420000   -2.000000 H    11 LYS     0.0621 ****
154 HD3    24.440000   24.880000   -0.250000 H    11 LYS     0.0621 ****
155 CE     25.080000   26.400000   -1.620000 C    11 LYS    -0.0143 ****
156 HE2    25.620000   26.980000   -0.870000 H    11 LYS     0.1135 ****
157 HE3    25.640000   26.420000   -2.560000 H    11 LYS     0.1135 ****
158 NZ     23.800000   27.060000   -1.900000 N    11 LYS    -0.3854 ****
159 HZ1    23.090000   27.020000   -1.180000 H    11 LYS     0.3400 ****
160 HZ2    23.400000   26.690000   -2.750000 H    11 LYS     0.3400 ****
161 HZ3    23.960000   28.030000   -2.140000 H    11 LYS     0.3400 ****
162 C      29.350000   24.510000   -0.550000 C    11 LYS     0.7341 ****
163 O      29.470000   23.780000    0.430000 O    11 LYS    -0.5894 ****
164 N      29.720000   25.790000   -0.530000 N    12 TYR    -0.4157 ****
165 H      29.630000   26.300000   -1.400000 H    12 TYR     0.2719 ****
166 CA     30.190000   26.500000    0.650000 C    12 TYR    -0.0014 ****
167 HA     31.050000   25.970000    1.060000 H    12 TYR     0.0876 ****
168 CB     30.600000   27.920000    0.310000 C    12 TYR    -0.0152 ****
169 HB2    29.900000   28.300000   -0.450000 H    12 TYR     0.0295 ****
170 HB3    30.410000   28.530000    1.190000 H    12 TYR     0.0295 ****
171 CG     32.070000   28.160000    0.060000 C    12 TYR    -0.0011 ****
172 CD1    32.680000   27.610000   -1.070000 C    12 TYR    -0.1906 ****
173 HD1    32.160000   26.890000   -1.690000 H    12 TYR     0.1699 ****
174 CE1    34.040000   27.880000   -1.280000 C    12 TYR    -0.2341 ****
175 HE1    34.500000   27.570000   -2.200000 H    12 TYR     0.1656 ****
176 CZ     34.750000   28.700000   -0.380000 C    12 TYR     0.3226 ****
177 OH     36.070000   28.940000   -0.620000 O    12 TYR    -0.5579 ****
178 HH     36.530000   29.430000    0.060000 H    12 TYR     0.3992 ****
179 CE2    34.150000   29.290000    0.760000 C    12 TYR    -0.2341 ****
180 HE2    34.680000   30.010000    1.360000 H    12 TYR     0.1656 ****
181 CD2    32.770000   29.080000    0.850000 C    12 TYR    -0.1906 ****
182 HD2    32.180000   29.610000    1.580000 H    12 TYR     0.1699 ****
183 C      29.100000   26.560000    1.720000 C    12 TYR     0.5973 ****
184 O      27.920000   26.740000    1.450000 O    12 TYR    -0.5679 ****
185 N      29.600000   26.400000    2.950000 N    13 VAL    -0.4157 ****
186 H      30.590000   26.180000    3.000000 H    13 VAL     0.2719 ****
187 CA     28.830000   26.320000    4.170000 C    13 VAL    -0.0875 ****
188 HA     27.820000   26.510000    3.830000 H    13 VAL     0.0969 ****
189 CB     29.260000   27.380000    5.190000 C    13 VAL     0.2985 ****
190 HB     28.540000   27.360000    6.000000 H    13 VAL    -0.0297 ****
191 CG1    30.680000   27.280000    5.730000 C    13 VAL    -0.3192 ****
192 HG11   31.210000   27.500000    4.800000 H    13 VAL     0.0791 ****
193 HG12   30.860000   26.330000    6.240000 H    13 VAL     0.0791 ****
194 HG13   30.760000   28.070000    6.480000 H    13 VAL     0.0791 ****
195 CG2    28.900000   28.730000    4.580000 C    13 VAL    -0.3192 ****
196 HG21   29.600000   28.950000    3.780000 H    13 VAL     0.0791 ****
197 HG22   29.100000   29.480000    5.350000 H    13 VAL     0.0791 ****
198 HG23   27.850000   28.720000    4.280000 H    13 VAL     0.0791 ****
199 C      28.770000   24.920000    4.760000 C    13 VAL     0.5973 ****
200 O      29.530000   24.090000    4.280000 O    13 VAL    -0.5679 ****
201 N      27.880000   24.610000    5.700000 N    14 PRO    -0.2548 ****
202 CD     26.800000   25.430000    6.230000 C    14 PRO     0.0192 ****
203 HD2    27.230000   26.080000    6.990000 H    14 PRO     0.0391 ****
204 HD3    26.210000   25.920000    5.460000 H    14 PRO     0.0391 ****
205 CG     25.880000   24.420000    6.910000 C    14 PRO     0.0189 ****
206 HG2    25.410000   24.940000    7.750000 H    14 PRO     0.0213 ****
207 HG3    25.140000   23.980000    6.260000 H    14 PRO     0.0213 ****
208 CB     26.790000   23.300000    7.390000 C    14 PRO    -0.0070 ****
209 HB2    27.170000   23.590000    8.370000 H    14 PRO     0.0253 ****
210 HB3    26.270000   22.340000    7.430000 H    14 PRO     0.0253 ****
211 CA     27.880000   23.290000    6.320000 C    14 PRO    -0.0266 ****
212 HA     27.500000   22.560000    5.600000 H    14 PRO     0.0641 ****
213 C      29.210000   22.820000    6.890000 C    14 PRO     0.5896 ****
214 O      30.050000   23.640000    7.240000 O    14 PRO    -0.5748 ****
@<TRIPOS>BOND
    1     9    10 1
    2     9    11 1
    3     8   111 1
    4     5     6 1
    5     5     7 1
    6     5     8 1
    7     3     4 1
    8     3     5 1
    9     3     9 1
   10     1     2 1
   11     1     3 1
   12     1   213 1
   13    23    24 1
   14    23    25 1
   15    20    21 1
   16    20    22 1
   17    18    19 1
   18    18    20 1
   19    15    16 1
   20    15    17 1
   21    15    18 1
   22    13    14 1
   23    13    15 1
   24    13    23 1
   25    11    12 1
   26    11    13 1
   27    39    40 1
   28    39    41 1
   29    35    36 1
   30    35    37 1
   31    35    38 1
   32    31    32 1
   33    31    33 1
   34    31    34 1
   35    29    30 1
   36    29    31 1
   37    29    35 1
   38    27    28 1
   39    27    29 1
   40    27    39 1
   41    25    26 1
   42    25    27 1
   43    53    54 1
   44    53    55 1
   45    51    52 1
   46    51    53 1
   47    48    49 1
   48    48    50 1
   49    48    51 1
   50    45    46 1
   51    45    47 1
   52    45    48 1
   53    42    43 1
   54    42    44 1
   55    42    45 1
   56    41    42 1
   57    41    51 1
   58    65    66 1
   59    65    67 1
   60    62    63 1
   61    62    64 1
   62    59    60 1
   63    59    61 1
   64    59    62 1
   65    57    58 1
   66    57    59 1
   67    57    65 1
   68    55    56 1
   69    55    57 1
   70    81    82 1
   71    81    83 1
   72    77    78 1
   73    77    79 1
   74    77    80 1
   75    73    74 1
   76    73    75 1
   77    73    76 1
   78    71    72 1
   79    71    73 1
   80    71    77 1
   81    69    70 1
   82    69    71 1
   83    69    81 1
   84    67    68 1
   85    67    69 1
   86   102   103 1
   87   102   104 1
   88   100   101 1
   89    98    99 1
   90    98   100 1
   91    96    97 1
   92    95    96 1
   93    95    98 1
   94    93    94 1
   95    93    95 1
   96    91    92 1
   97    91    93 1
   98    90    91 1
   99    90   100 1
  100    87    88 1
  101    87    89 1
  102    87    90 1
  103    85    86 1
  104    85    87 1
  105    85   102 1
  106    83    84 1
  107    83    85 1
  108   112   113 1
  109   112   114 1
  110   108   109 1
  111   108   110 1
  112   108   111 1
  113   106   107 1
  114   106   108 1
  115   106   112 1
  116   104   105 1
  117   104   106 1
  118   126   127 1
  119   126   128 1
  120   124   125 1
  121   124   126 1
  122   121   122 1
  123   121   123 1
  124   121   124 1
  125   118   119 1
  126   118   120 1
  127   118   121 1
  128   115   116 1
  129   115   117 1
  130   115   118 1
  131   114   115 1
  132   114   124 1
  133   140   141 1
  134   140   142 1
  135   137   138 1
  136   137   139 1
  137   135   136 1
  138   135   137 1
  139   132   133 1
  140   132   134 1
  141   132   135 1
  142   130   131 1
  143   130   132 1
  144   130   140 1
  145   128   129 1
  146   128   130 1
  147   162   163 1
  148   162   164 1
  149   158   159 1
  150   158   160 1
  151   158   161 1
  152   155   156 1
  153   155   157 1
  154   155   158 1
  155   152   153 1
  156   152   154 1
  157   152   155 1
  158   149   150 1
  159   149   151 1
  160   149   152 1
  161   146   147 1
  162   146   148 1
  163   146   149 1
  164   144   145 1
  165   144   146 1
  166   144   162 1
  167   142   143 1
  168   142   144 1
  169   183   184 1
  170   183   185 1
  171   181   182 1
  172   179   180 1
  173   179   181 1
  174   177   178 1
  175   176   177 1
  176   176   179 1
  177   174   175 1
  178   174   176 1
  179   172   173 1
  180   172   174 1
  181   171   172 1
  182   171   181 1
  183   168   169 1
  184   168   170 1
  185   168   171 1
  186   166   167 1
  187   166   168 1
  188   166   183 1
  189   164   165 1
  190   164   166 1
  191   199   200 1
  192   199   201 1
  193   195   196 1
  194   195   197 1
  195   195   198 1
  196   191   192 1
  197   191   193 1
  198   191   194 1
  199   189   190 1
  200   189   191 1
  201   189   195 1
  202   187   188 1
  203   187   189 1
  204   187   199 1
  205   185   186 1
  206   185   187 1
  207   213   214 1
  208   211   212 1
  209   211   213 1
  210   208   209 1
  211   208   210 1
  212   208   211 1
  213   205   206 1
  214   205   207 1
  215   205   208 1
  216   202   203 1
  217   202   204 1
  218   202   205 1
  219   201   202 1
  220   201   211 1
@<TRIPOS>SUBSTRUCTURE
      1  CYX              1 ****               0 ****  **** 
      2  ASN             11 ****               0 ****  **** 
      3  VAL             25 ****               0 ****  **** 
      4  PRO             41 ****               0 ****  **** 
      5  ASP             55 ****               0 ****  **** 
      6  VAL             67 ****               0 ****  **** 
      7  TYR             83 ****               0 ****  **** 
      8  CYX            104 ****               0 ****  **** 
      9  PRO            114 ****               0 ****  **** 
     10  ASN            128 ****               0 ****  **** 
     11  LYS            142 ****               0 ****  **** 
     12  TYR            164 ****               0 ****  **** 
     13  VAL            185 ****               0 ****  **** 
     14  PRO            201 ****               0 ****  **** 
