@<TRIPOS>MOLECULE
default_name
  151   156     9     0     1 
SMALL
USER_CHARGES
@<TRIPOS>ATOM
  1 N      13.970000   32.820000   25.770000 N     1 PRO    -0.2548 ****
  2 CD     13.130000   31.640000   25.850000 C     1 PRO     0.0192 ****
  3 HD2    12.190000   31.940000   26.310000 H     1 PRO     0.0391 ****
  4 HD3    12.910000   31.110000   24.920000 H     1 PRO     0.0391 ****
  5 CG     13.800000   30.700000   26.860000 C     1 PRO     0.0189 ****
  6 HG2    13.140000   30.080000   27.460000 H     1 PRO     0.0213 ****
  7 HG3    14.520000   30.030000   26.400000 H     1 PRO     0.0213 ****
  8 CB     14.640000   31.650000   27.700000 C     1 PRO    -0.0070 ****
  9 HB2    14.030000   32.150000   28.460000 H     1 PRO     0.0253 ****
 10 HB3    15.500000   31.190000   28.180000 H     1 PRO     0.0253 ****
 11 CA     15.040000   32.770000   26.750000 C     1 PRO    -0.0266 ****
 12 HA     15.910000   32.550000   26.130000 H     1 PRO     0.0641 ****
 13 C      15.310000   34.060000   27.520000 C     1 PRO     0.5896 ****
 14 O      14.370000   34.840000   27.690000 O     1 PRO    -0.5748 ****
 15 N      16.530000   34.300000   27.990000 N     2 PRO    -0.2548 ****
 16 CD     17.640000   33.380000   27.810000 C     2 PRO     0.0192 ****
 17 HD2    17.910000   33.220000   26.770000 H     2 PRO     0.0391 ****
 18 HD3    17.420000   32.390000   28.190000 H     2 PRO     0.0391 ****
 19 CG     18.850000   33.960000   28.560000 C     2 PRO     0.0189 ****
 20 HG2    19.620000   34.400000   27.930000 H     2 PRO     0.0213 ****
 21 HG3    19.280000   33.230000   29.240000 H     2 PRO     0.0213 ****
 22 CB     18.280000   35.070000   29.420000 C     2 PRO    -0.0070 ****
 23 HB2    19.000000   35.890000   29.470000 H     2 PRO     0.0253 ****
 24 HB3    18.020000   34.700000   30.410000 H     2 PRO     0.0253 ****
 25 CA     16.920000   35.430000   28.810000 C     2 PRO    -0.0266 ****
 26 HA     16.210000   35.580000   29.620000 H     2 PRO     0.0641 ****
 27 C      17.110000   36.730000   28.050000 C     2 PRO     0.5896 ****
 28 O      17.030000   37.790000   28.670000 O     2 PRO    -0.5748 ****
 29 N      17.440000   36.690000   26.750000 N     3 TYR    -0.4157 ****
 30 H      17.550000   35.820000   26.270000 H     3 TYR     0.2719 ****
 31 CA     17.560000   37.850000   25.880000 C     3 TYR    -0.0014 ****
 32 HA     16.810000   38.600000   26.120000 H     3 TYR     0.0876 ****
 33 CB     18.960000   38.430000   26.100000 C     3 TYR    -0.0152 ****
 34 HB2    19.030000   38.930000   27.070000 H     3 TYR     0.0295 ****
 35 HB3    19.740000   37.680000   26.100000 H     3 TYR     0.0295 ****
 36 CG     19.370000   39.490000   25.100000 C     3 TYR    -0.0011 ****
 37 CD1    18.970000   40.810000   25.310000 C     3 TYR    -0.1906 ****
 38 HD1    18.190000   40.920000   26.050000 H     3 TYR     0.1699 ****
 39 CE1    19.450000   41.790000   24.430000 C     3 TYR    -0.2341 ****
 40 HE1    19.210000   42.820000   24.670000 H     3 TYR     0.1656 ****
 41 CZ     20.390000   41.470000   23.430000 C     3 TYR     0.3226 ****
 42 OH     20.940000   42.380000   22.580000 O     3 TYR    -0.5579 ****
 43 HH     21.490000   41.910000   21.940000 H     3 TYR     0.3992 ****
 44 CE2    20.860000   40.150000   23.270000 C     3 TYR    -0.2341 ****
 45 HE2    21.590000   39.920000   22.510000 H     3 TYR     0.1656 ****
 46 CD2    20.330000   39.180000   24.130000 C     3 TYR    -0.1906 ****
 47 HD2    20.700000   38.160000   24.110000 H     3 TYR     0.1699 ****
 48 C      17.420000   37.390000   24.440000 C     3 TYR     0.5973 ****
 49 O      18.080000   36.500000   23.910000 O     3 TYR    -0.5679 ****
 50 N      16.590000   38.140000   23.720000 N     4 HIP    -0.3479 ****
 51 H      16.300000   38.940000   24.270000 H     4 HIP     0.2747 ****
 52 CA     16.420000   38.100000   22.290000 C     4 HIP    -0.1354 ****
 53 HA     16.490000   37.040000   22.030000 H     4 HIP     0.1212 ****
 54 CB     17.530000   38.980000   21.730000 C     4 HIP    -0.0414 ****
 55 HB2    17.770000   38.710000   20.700000 H     4 HIP     0.0810 ****
 56 HB3    18.430000   38.800000   22.310000 H     4 HIP     0.0810 ****
 57 CG     17.440000   40.480000   21.770000 C     4 HIP    -0.0012 ****
 58 ND1    16.600000   41.180000   22.620000 N     4 HIP    -0.1513 ****
 59 HD1    16.290000   40.910000   23.540000 H     4 HIP     0.3866 ****
 60 CE1    16.490000   42.460000   22.200000 C     4 HIP    -0.0170 ****
 61 HE1    16.060000   43.280000   22.760000 H     4 HIP     0.2681 ****
 62 NE2    17.380000   42.580000   21.200000 N     4 HIP    -0.1718 ****
 63 HE2    17.430000   43.380000   20.580000 H     4 HIP     0.3911 ****
 64 CD2    17.940000   41.370000   20.850000 C     4 HIP    -0.1141 ****
 65 HD2    18.560000   41.100000   20.010000 H     4 HIP     0.2317 ****
 66 C      15.060000   38.560000   21.770000 C     4 HIP     0.7341 ****
 67 O      14.250000   38.990000   22.590000 O     4 HIP    -0.5894 ****
 68 N      14.810000   38.430000   20.470000 N     5 PRO    -0.2548 ****
 69 CD     15.700000   37.940000   19.440000 C     5 PRO     0.0192 ****
 70 HD2    16.290000   37.050000   19.660000 H     5 PRO     0.0391 ****
 71 HD3    16.320000   38.790000   19.140000 H     5 PRO     0.0391 ****
 72 CG     14.780000   37.590000   18.280000 C     5 PRO     0.0189 ****
 73 HG2    14.200000   36.690000   18.490000 H     5 PRO     0.0213 ****
 74 HG3    15.330000   37.610000   17.330000 H     5 PRO     0.0213 ****
 75 CB     13.840000   38.790000   18.390000 C     5 PRO    -0.0070 ****
 76 HB2    12.950000   38.600000   17.780000 H     5 PRO     0.0253 ****
 77 HB3    14.440000   39.630000   18.030000 H     5 PRO     0.0253 ****
 78 CA     13.550000   38.850000   19.890000 C     5 PRO    -0.0266 ****
 79 HA     13.320000   39.900000   20.050000 H     5 PRO     0.0641 ****
 80 C      12.370000   37.980000   20.290000 C     5 PRO     0.5896 ****
 81 O      12.620000   36.970000   20.930000 O     5 PRO    -0.5748 ****
 82 N      11.150000   38.480000   20.050000 N     6 LYS    -0.3479 ****
 83 H      11.080000   39.270000   19.430000 H     6 LYS     0.2747 ****
 84 CA      9.950000   38.050000   20.730000 C     6 LYS    -0.2400 ****
 85 HA     10.180000   38.200000   21.780000 H     6 LYS     0.1426 ****
 86 CB      8.770000   38.910000   20.320000 C     6 LYS    -0.0094 ****
 87 HB2     8.650000   38.800000   19.240000 H     6 LYS     0.0362 ****
 88 HB3     7.830000   38.560000   20.730000 H     6 LYS     0.0362 ****
 89 CG      8.890000   40.410000   20.570000 C     6 LYS     0.0187 ****
 90 HG2     9.800000   40.710000   20.050000 H     6 LYS     0.0103 ****
 91 HG3     7.950000   40.860000   20.250000 H     6 LYS     0.0103 ****
 92 CD      9.140000   40.640000   22.060000 C     6 LYS    -0.0479 ****
 93 HD2     8.360000   40.170000   22.670000 H     6 LYS     0.0621 ****
 94 HD3    10.090000   40.210000   22.370000 H     6 LYS     0.0621 ****
 95 CE      9.060000   42.150000   22.280000 C     6 LYS    -0.0143 ****
 96 HE2     9.710000   42.700000   21.590000 H     6 LYS     0.1135 ****
 97 HE3     8.020000   42.450000   22.160000 H     6 LYS     0.1135 ****
 98 NZ      9.320000   42.480000   23.690000 N     6 LYS    -0.3854 ****
 99 HZ1     9.340000   43.470000   23.830000 H     6 LYS     0.3400 ****
100 HZ2    10.220000   42.180000   24.030000 H     6 LYS     0.3400 ****
101 HZ3     8.660000   42.080000   24.340000 H     6 LYS     0.3400 ****
102 C       9.740000   36.540000   20.630000 C     6 LYS     0.7341 ****
103 O       9.330000   35.900000   21.590000 O     6 LYS    -0.5894 ****
104 N       9.950000   35.920000   19.470000 N     7 ASP    -0.5163 ****
105 H      10.290000   36.480000   18.700000 H     7 ASP     0.2936 ****
106 CA      9.770000   34.520000   19.120000 C     7 ASP     0.0381 ****
107 HA      8.940000   34.060000   19.660000 H     7 ASP     0.0880 ****
108 CB      9.340000   34.420000   17.660000 C     7 ASP    -0.0303 ****
109 HB2     9.230000   33.370000   17.410000 H     7 ASP    -0.0122 ****
110 HB3     8.350000   34.870000   17.650000 H     7 ASP    -0.0122 ****
111 CG     10.150000   35.110000   16.580000 C     7 ASP     0.7994 ****
112 OD1    11.260000   35.620000   16.860000 O     7 ASP    -0.8014 ****
113 OD2     9.730000   35.010000   15.400000 O     7 ASP    -0.8014 ****
114 C      11.030000   33.720000   19.420000 C     7 ASP     0.5366 ****
115 O      10.940000   32.500000   19.280000 O     7 ASP    -0.5819 ****
116 N      12.190000   34.320000   19.700000 N     8 LEU    -0.4157 ****
117 H      12.150000   35.320000   19.770000 H     8 LEU     0.2719 ****
118 CA     13.290000   33.550000   20.260000 C     8 LEU    -0.0518 ****
119 HA     13.260000   32.620000   19.680000 H     8 LEU     0.0922 ****
120 CB     14.600000   34.250000   19.930000 C     8 LEU    -0.1102 ****
121 HB2    14.700000   34.530000   18.890000 H     8 LEU     0.0457 ****
122 HB3    14.650000   35.160000   20.530000 H     8 LEU     0.0457 ****
123 CG     15.810000   33.410000   20.330000 C     8 LEU     0.3531 ****
124 HG     15.700000   33.030000   21.350000 H     8 LEU    -0.0361 ****
125 CD1    16.060000   32.270000   19.340000 C     8 LEU    -0.4121 ****
126 HD11   16.940000   31.740000   19.690000 H     8 LEU     0.1000 ****
127 HD12   16.150000   32.740000   18.360000 H     8 LEU     0.1000 ****
128 HD13   15.190000   31.620000   19.260000 H     8 LEU     0.1000 ****
129 CD2    17.080000   34.240000   20.510000 C     8 LEU    -0.4121 ****
130 HD21   17.590000   34.490000   19.580000 H     8 LEU     0.1000 ****
131 HD22   17.820000   33.550000   20.910000 H     8 LEU     0.1000 ****
132 HD23   17.020000   35.080000   21.200000 H     8 LEU     0.1000 ****
133 C      13.160000   33.290000   21.750000 C     8 LEU     0.5973 ****
134 O      13.210000   32.120000   22.130000 O     8 LEU    -0.5679 ****
135 N      13.050000   34.320000   22.580000 N     9 GLN    -0.4157 ****
136 H      12.980000   35.270000   22.240000 H     9 GLN     0.2719 ****
137 CA     12.990000   34.150000   24.020000 C     9 GLN    -0.0031 ****
138 HA     12.150000   33.480000   24.230000 H     9 GLN     0.0850 ****
139 CB     12.670000   35.490000   24.690000 C     9 GLN    -0.0036 ****
140 HB2    13.330000   36.270000   24.330000 H     9 GLN     0.0171 ****
141 HB3    12.730000   35.410000   25.780000 H     9 GLN     0.0171 ****
142 CG     11.250000   35.970000   24.410000 C     9 GLN    -0.0645 ****
143 HG2    11.130000   36.020000   23.330000 H     9 GLN     0.0352 ****
144 HG3    11.100000   36.960000   24.840000 H     9 GLN     0.0352 ****
145 CD     10.240000   34.960000   24.940000 C     9 GLN     0.6951 ****
146 OE1    10.380000   34.480000   26.060000 O     9 GLN    -0.6086 ****
147 NE2     9.160000   34.750000   24.190000 N     9 GLN    -0.9407 ****
148 HE21    9.150000   35.040000   23.220000 H     9 GLN     0.4251 ****
149 HE22    8.540000   34.200000   24.760000 H     9 GLN     0.4251 ****
150 C      14.210000   33.520000   24.660000 C     9 GLN     0.5973 ****
151 O      15.320000   33.560000   24.150000 O     9 GLN    -0.5679 ****
@<TRIPOS>BOND
    1    13    14 1
    2    13    15 1
    3    11    12 1
    4    11    13 1
    5     8     9 1
    6     8    10 1
    7     8    11 1
    8     5     6 1
    9     5     7 1
   10     5     8 1
   11     2     3 1
   12     2     4 1
   13     2     5 1
   14     1     2 1
   15     1    11 1
   16     1   150 1
   17    27    28 1
   18    27    29 1
   19    25    26 1
   20    25    27 1
   21    22    23 1
   22    22    24 1
   23    22    25 1
   24    19    20 1
   25    19    21 1
   26    19    22 1
   27    16    17 1
   28    16    18 1
   29    16    19 1
   30    15    16 1
   31    15    25 1
   32    48    49 1
   33    48    50 1
   34    46    47 1
   35    44    45 1
   36    44    46 1
   37    42    43 1
   38    41    42 1
   39    41    44 1
   40    39    40 1
   41    39    41 1
   42    37    38 1
   43    37    39 1
   44    36    37 1
   45    36    46 1
   46    33    34 1
   47    33    35 1
   48    33    36 1
   49    31    32 1
   50    31    33 1
   51    31    48 1
   52    29    30 1
   53    29    31 1
   54    66    67 1
   55    66    68 1
   56    64    65 1
   57    62    63 1
   58    62    64 1
   59    60    61 1
   60    60    62 1
   61    58    59 1
   62    58    60 1
   63    57    58 1
   64    57    64 1
   65    54    55 1
   66    54    56 1
   67    54    57 1
   68    52    53 1
   69    52    54 1
   70    52    66 1
   71    50    51 1
   72    50    52 1
   73    80    81 1
   74    80    82 1
   75    78    79 1
   76    78    80 1
   77    75    76 1
   78    75    77 1
   79    75    78 1
   80    72    73 1
   81    72    74 1
   82    72    75 1
   83    69    70 1
   84    69    71 1
   85    69    72 1
   86    68    69 1
   87    68    78 1
   88   102   103 1
   89   102   104 1
   90    98    99 1
   91    98   100 1
   92    98   101 1
   93    95    96 1
   94    95    97 1
   95    95    98 1
   96    92    93 1
   97    92    94 1
   98    92    95 1
   99    89    90 1
  100    89    91 1
  101    89    92 1
  102    86    87 1
  103    86    88 1
  104    86    89 1
  105    84    85 1
  106    84    86 1
  107    84   102 1
  108    82    83 1
  109    82    84 1
  110   114   115 1
  111   114   116 1
  112   111   112 1
  113   111   113 1
  114   108   109 1
  115   108   110 1
  116   108   111 1
  117   106   107 1
  118   106   108 1
  119   106   114 1
  120   104   105 1
  121   104   106 1
  122   133   134 1
  123   133   135 1
  124   129   130 1
  125   129   131 1
  126   129   132 1
  127   125   126 1
  128   125   127 1
  129   125   128 1
  130   123   124 1
  131   123   125 1
  132   123   129 1
  133   120   121 1
  134   120   122 1
  135   120   123 1
  136   118   119 1
  137   118   120 1
  138   118   133 1
  139   116   117 1
  140   116   118 1
  141   150   151 1
  142   147   148 1
  143   147   149 1
  144   145   146 1
  145   145   147 1
  146   142   143 1
  147   142   144 1
  148   142   145 1
  149   139   140 1
  150   139   141 1
  151   139   142 1
  152   137   138 1
  153   137   139 1
  154   137   150 1
  155   135   136 1
  156   135   137 1
@<TRIPOS>SUBSTRUCTURE
      1  PRO              1 ****               0 ****  **** 
      2  PRO             15 ****               0 ****  **** 
      3  TYR             29 ****               0 ****  **** 
      4  HIP             50 ****               0 ****  **** 
      5  PRO             68 ****               0 ****  **** 
      6  LYS             82 ****               0 ****  **** 
      7  ASP            104 ****               0 ****  **** 
      8  LEU            116 ****               0 ****  **** 
      9  GLN            135 ****               0 ****  **** 
