@<TRIPOS>MOLECULE
default_name
  167   172    10     0     1 
SMALL
USER_CHARGES
@<TRIPOS>ATOM
  1 N       0.516000   -5.522000   -2.692000 N     1 SER    -0.4157 ****
  2 H      -0.342549   -4.991987   -2.737595 H     1 SER     0.2719 ****
  3 CA      0.468000   -7.420000   -3.203000 C     1 SER    -0.0249 ****
  4 HA      1.116714   -7.313622   -4.072456 H     1 SER     0.0843 ****
  5 CB      0.760000   -8.719000   -2.550000 C     1 SER     0.2117 ****
  6 HB2     1.815305   -8.730775   -2.277435 H     1 SER     0.0352 ****
  7 HB3     0.151584   -8.788488   -1.648278 H     1 SER     0.0352 ****
  8 OG      0.468000   -9.862000   -3.427000 O     1 SER    -0.6546 ****
  9 HG      0.670753  -10.679183   -2.965802 H     1 SER     0.4275 ****
 10 C      -0.901000   -8.549000   -4.136000 C     1 SER     0.5973 ****
 11 O      -1.172000   -8.574000   -5.346000 O     1 SER    -0.5679 ****
 12 N      -1.675000   -9.475000   -3.482000 N     2 TYR    -0.4157 ****
 13 H      -2.516731   -9.583677   -4.029520 H     2 TYR     0.2719 ****
 14 CA     -1.743000   -9.723000   -2.092000 C     2 TYR    -0.0014 ****
 15 HA     -1.082397   -9.116016   -1.472910 H     2 TYR     0.0876 ****
 16 CB     -3.217000   -9.255000   -1.858000 C     2 TYR    -0.0152 ****
 17 HB2    -3.512814   -9.613074   -0.871909 H     2 TYR     0.0295 ****
 18 HB3    -3.120402   -8.169514   -1.835901 H     2 TYR     0.0295 ****
 19 CG     -4.277000   -9.650000   -2.881000 C     2 TYR    -0.0011 ****
 20 CD1    -4.697000  -10.972000   -2.880000 C     2 TYR    -0.1906 ****
 21 HD1    -4.134182  -11.723840   -2.326762 H     2 TYR     0.1699 ****
 22 CE1    -5.836000  -11.337000   -3.585000 C     2 TYR    -0.2341 ****
 23 HE1    -6.178960  -12.371502   -3.568115 H     2 TYR     0.1656 ****
 24 CZ     -6.523000  -10.389000   -4.335000 C     2 TYR     0.3226 ****
 25 OH     -7.722000  -10.698000   -4.909000 O     2 TYR    -0.5579 ****
 26 HH     -8.001280  -11.599316   -4.732274 H     2 TYR     0.3992 ****
 27 CE2    -6.025000   -9.103000   -4.496000 C     2 TYR    -0.2341 ****
 28 HE2    -6.502307   -8.389555   -5.167770 H     2 TYR     0.1656 ****
 29 CD2    -4.886000   -8.730000   -3.774000 C     2 TYR    -0.1906 ****
 30 HD2    -4.465383   -7.731972   -3.896972 H     2 TYR     0.1699 ****
 31 C      -0.698000  -10.944000   -1.391000 C     2 TYR     0.5973 ****
 32 O      -1.160000  -11.564000   -0.422000 O     2 TYR    -0.5679 ****
 33 N       0.776000  -11.217000   -1.714000 N     3 SER    -0.4157 ****
 34 H       0.900090  -11.818520   -0.912205 H     3 SER     0.2719 ****
 35 CA      2.271000  -10.532000   -2.527000 C     3 SER    -0.0249 ****
 36 HA      2.339166   -9.455804   -2.368084 H     3 SER     0.0843 ****
 37 CB      3.523000  -11.206000   -1.903000 C     3 SER     0.2117 ****
 38 HB2     4.353645  -11.072653   -2.596071 H     3 SER     0.0352 ****
 39 HB3     3.745668  -10.693770   -0.966977 H     3 SER     0.0352 ****
 40 OG      3.336000  -12.581000   -1.653000 O     3 SER    -0.6546 ****
 41 HG      4.135698  -12.948098   -1.269174 H     3 SER     0.4275 ****
 42 C       2.331000   -9.853000   -4.358000 C     3 SER     0.5973 ****
 43 O       2.813000  -10.665000   -5.179000 O     3 SER    -0.5679 ****
 44 N       1.509000   -8.644000   -5.147000 N     4 MET    -0.4157 ****
 45 H       2.094616   -8.892972   -5.931325 H     4 MET     0.2719 ****
 46 CA      0.448000   -7.063000   -5.276000 C     4 MET    -0.0237 ****
 47 HA      0.929573   -6.201077   -4.814183 H     4 MET     0.0880 ****
 48 CB      0.302000   -6.791000   -6.816000 C     4 MET     0.0342 ****
 49 HB2    -0.279440   -7.600586   -7.257132 H     4 MET     0.0241 ****
 50 HB3    -0.227314   -5.847979   -6.952523 H     4 MET     0.0241 ****
 51 CG      1.678000   -6.712000   -7.506000 C     4 MET     0.0018 ****
 52 HG2     2.299659   -6.064018   -6.888132 H     4 MET     0.0440 ****
 53 HG3     2.088182   -7.721858   -7.499673 H     4 MET     0.0440 ****
 54 SD      1.668000   -6.084000   -9.205000 S     4 MET    -0.2737 ****
 55 CE      0.949000   -7.515000  -10.021000 C     4 MET    -0.0536 ****
 56 HE1    -0.039292   -7.712257   -9.605708 H     4 MET     0.0684 ****
 57 HE2     0.860927   -7.318458  -11.089511 H     4 MET     0.0684 ****
 58 HE3     1.588718   -8.383334   -9.863338 H     4 MET     0.0684 ****
 59 C      -1.084000   -6.451000   -4.148000 C     4 MET     0.5973 ****
 60 O      -2.184000   -6.113000   -4.627000 O     4 MET    -0.5679 ****
 61 N      -1.161000   -6.738000   -2.339000 N     5 GLU    -0.5163 ****
 62 H      -1.900458   -6.070410   -2.172793 H     5 GLU     0.2936 ****
 63 CA      0.212000   -6.930000   -1.004000 C     5 GLU     0.0397 ****
 64 HA      0.880371   -6.080169   -1.142443 H     5 GLU     0.1105 ****
 65 CB     -0.214000   -6.989000    0.491000 C     5 GLU     0.0560 ****
 66 HB2     0.719924   -7.204708    1.009995 H     5 GLU    -0.0173 ****
 67 HB3    -0.520190   -5.965126    0.705545 H     5 GLU    -0.0173 ****
 68 CG     -1.269000   -7.930000    0.957000 C     5 GLU     0.0136 ****
 69 HG2    -2.158713   -7.850454    0.332353 H     5 GLU    -0.0425 ****
 70 HG3    -0.884288   -8.948875    0.912394 H     5 GLU    -0.0425 ****
 71 CD     -1.627000   -7.586000    2.395000 C     5 GLU     0.8054 ****
 72 OE1    -1.131000   -6.690000    3.064000 O     5 GLU    -0.8188 ****
 73 OE2    -2.596000   -8.389000    2.863000 O     5 GLU    -0.8188 ****
 74 C       2.088000   -7.279000   -1.043000 C     5 GLU     0.5366 ****
 75 O       2.540000   -7.880000   -0.042000 O     5 GLU    -0.5819 ****
 76 N       3.112000   -7.232000   -2.054000 N     6 HIE    -0.4157 ****
 77 H       3.652700   -7.924827   -1.556272 H     6 HIE     0.2719 ****
 78 CA      3.831000   -6.403000   -3.225000 C     6 HIE    -0.0581 ****
 79 HA      3.891261   -5.370056   -2.882227 H     6 HIE     0.1360 ****
 80 CB      5.254000   -6.871000   -3.646000 C     6 HIE    -0.0074 ****
 81 HB2     5.522102   -6.087646   -4.354927 H     6 HIE     0.0367 ****
 82 HB3     5.999513   -6.912334   -2.851896 H     6 HIE     0.0367 ****
 83 CG      5.343000   -8.139000   -4.370000 C     6 HIE     0.1868 ****
 84 ND1     5.030000   -8.317000   -5.697000 N     6 HIE    -0.5432 ****
 85 CE1     5.337000   -9.614000   -5.998000 C     6 HIE     0.1635 ****
 86 HE1     5.109842   -9.959505   -7.006526 H     6 HIE     0.1435 ****
 87 NE2     5.874000  -10.238000   -4.973000 N     6 HIE    -0.2795 ****
 88 HE2     6.204250  -11.189558   -4.898345 H     6 HIE     0.3339 ****
 89 CD2     5.908000   -9.320000   -3.971000 C     6 HIE    -0.2207 ****
 90 HD2     6.347935   -9.580112   -3.008243 H     6 HIE     0.1862 ****
 91 C       3.312000   -5.663000   -4.465000 C     6 HIE     0.5973 ****
 92 O       3.858000   -5.722000   -5.565000 O     6 HIE    -0.5679 ****
 93 N       2.302000   -4.780000   -4.385000 N     7 PHE    -0.4157 ****
 94 H       2.116885   -4.440905   -5.318192 H     7 PHE     0.2719 ****
 95 CA      1.991000   -3.925000   -3.277000 C     7 PHE    -0.0024 ****
 96 HA      2.772654   -3.195809   -3.063935 H     7 PHE     0.0978 ****
 97 CB      0.474000   -3.019000   -3.848000 C     7 PHE    -0.0343 ****
 98 HB2     0.686312   -2.005244   -3.508410 H     7 PHE     0.0295 ****
 99 HB3     0.858571   -3.150860   -4.859345 H     7 PHE     0.0295 ****
100 CG     -1.109000   -3.145000   -3.943000 C     7 PHE     0.0118 ****
101 CD1    -1.997000   -2.531000   -3.001000 C     7 PHE    -0.1256 ****
102 HD1    -1.538172   -2.134794   -2.095131 H     7 PHE     0.1330 ****
103 CE1    -3.395000   -2.422000   -3.192000 C     7 PHE    -0.1704 ****
104 HE1    -4.014345   -1.937278   -2.437310 H     7 PHE     0.1430 ****
105 CZ     -3.975000   -2.932000   -4.339000 C     7 PHE    -0.1072 ****
106 HZ     -5.049726   -2.878707   -4.512852 H     7 PHE     0.1297 ****
107 CE2    -3.147000   -3.525000   -5.284000 C     7 PHE    -0.1704 ****
108 HE2    -3.603420   -3.946088   -6.179804 H     7 PHE     0.1430 ****
109 CD2    -1.739000   -3.591000   -5.106000 C     7 PHE    -0.1256 ****
110 HD2    -1.108615   -4.001719   -5.894685 H     7 PHE     0.1330 ****
111 C       2.541000   -4.480000   -1.596000 C     7 PHE     0.5973 ****
112 O       1.885000   -4.780000   -0.590000 O     7 PHE    -0.5679 ****
113 N       3.754000   -4.633000   -1.079000 N     8 ARG    -0.3479 ****
114 H       4.064607   -5.564839   -0.843843 H     8 ARG     0.2747 ****
115 CA      4.629000   -3.546000   -0.818000 C     8 ARG    -0.2637 ****
116 HA      4.097333   -2.597291   -0.744648 H     8 ARG     0.1560 ****
117 CB      5.255000   -3.846000    0.505000 C     8 ARG    -0.0007 ****
118 HB2     4.480289   -3.846902    1.271760 H     8 ARG     0.0327 ****
119 HB3     5.723017   -4.829422    0.460949 H     8 ARG     0.0327 ****
120 CG      6.290000   -2.815000    0.842000 C     8 ARG     0.0390 ****
121 HG2     7.153110   -2.882137    0.179705 H     8 ARG     0.0285 ****
122 HG3     5.879019   -1.806270    0.801266 H     8 ARG     0.0285 ****
123 CD      6.716000   -3.128000    2.257000 C     8 ARG     0.0486 ****
124 HD2     5.862924   -3.031962    2.928667 H     8 ARG     0.0687 ****
125 HD3     7.105597   -4.144696    2.308410 H     8 ARG     0.0687 ****
126 NE      7.739000   -2.223000    2.683000 N     8 ARG    -0.5295 ****
127 HE      7.968541   -1.448204    2.077110 H     8 ARG     0.3456 ****
128 CZ      8.372000   -2.323000    3.863000 C     8 ARG     0.8076 ****
129 NH1     8.081000   -3.157000    4.788000 N     8 ARG    -0.8627 ****
130 HH11    7.320184   -3.807977    4.655759 H     8 ARG     0.4478 ****
131 HH12    8.613410   -3.160625    5.646270 H     8 ARG     0.4478 ****
132 NH2     9.418000   -1.486000    4.006000 N     8 ARG    -0.8627 ****
133 HH21    9.662619   -0.855577    3.255781 H     8 ARG     0.4478 ****
134 HH22    9.952786   -1.492751    4.862771 H     8 ARG     0.4478 ****
135 C       5.515000   -3.658000   -2.025000 C     8 ARG     0.7341 ****
136 O       6.441000   -4.457000   -2.120000 O     8 ARG    -0.5894 ****
137 N       4.985000   -3.050000   -3.133000 N     9 TRP    -0.4157 ****
138 H       4.895515   -3.577218   -3.989816 H     9 TRP     0.2719 ****
139 CA      4.465000   -1.665000   -3.104000 C     9 TRP    -0.0275 ****
140 HA      4.924409   -1.067788   -2.316358 H     9 TRP     0.1123 ****
141 CB      4.844000   -1.057000   -4.467000 C     9 TRP    -0.0050 ****
142 HB2     4.161936   -1.626954   -5.097903 H     9 TRP     0.0339 ****
143 HB3     4.538778   -0.010670   -4.455448 H     9 TRP     0.0339 ****
144 CG      6.187000   -1.105000   -5.134000 C     9 TRP    -0.1415 ****
145 CD1     6.259000   -0.532000   -6.396000 C     9 TRP    -0.1638 ****
146 HD1     5.506095    0.202364   -6.682259 H     9 TRP     0.2062 ****
147 NE1     7.331000   -1.054000   -7.038000 N     9 TRP    -0.3418 ****
148 HE1     7.506687   -0.972644   -8.029269 H     9 TRP     0.3412 ****
149 CE2     8.121000   -1.724000   -6.143000 C     9 TRP     0.1380 ****
150 CZ2     9.341000   -2.364000   -6.383000 C     9 TRP    -0.2601 ****
151 HZ2     9.709591   -2.405161   -7.407961 H     9 TRP     0.1572 ****
152 CH2    10.010000   -2.910000   -5.294000 C     9 TRP    -0.1134 ****
153 HH2    10.974487   -3.401017   -5.423493 H     9 TRP     0.1417 ****
154 CZ3     9.456000   -2.837000   -4.020000 C     9 TRP    -0.1972 ****
155 HZ3     9.991866   -3.224407   -3.153477 H     9 TRP     0.1447 ****
156 CE3     8.187000   -2.261000   -3.810000 C     9 TRP    -0.2387 ****
157 HE3     7.768392   -2.343622   -2.806984 H     9 TRP     0.1700 ****
158 CD2     7.481000   -1.690000   -4.895000 C     9 TRP     0.1243 ****
159 C       2.855000   -1.293000   -2.990000 C     9 TRP     0.5973 ****
160 O       2.313000   -0.798000   -3.999000 O     9 TRP    -0.5679 ****
161 N       1.939000   -1.461000   -1.963000 N    10 GLY    -0.4157 ****
162 H       1.843685   -0.518040   -1.613942 H    10 GLY     0.2719 ****
163 CA      1.062000   -2.654000   -1.240000 C    10 GLY    -0.0252 ****
164 HA2     1.880580   -2.939158   -0.579159 H    10 GLY     0.0698 ****
165 HA3     0.410240   -1.947385   -0.726188 H    10 GLY     0.0698 ****
166 C       0.051000   -4.220000   -1.693000 C    10 GLY     0.5973 ****
167 O      -1.016000   -4.367000   -1.064000 O    10 GLY    -0.5679 ****
@<TRIPOS>BOND
    1    10    11 1
    2    10    12 1
    3     8     9 1
    4     5     6 1
    5     5     7 1
    6     5     8 1
    7     3     4 1
    8     3     5 1
    9     3    10 1
   10     1     2 1
   11     1     3 1
   12     1   166 1
   13    31    32 1
   14    31    33 1
   15    29    30 1
   16    27    28 1
   17    27    29 1
   18    25    26 1
   19    24    25 1
   20    24    27 1
   21    22    23 1
   22    22    24 1
   23    20    21 1
   24    20    22 1
   25    19    20 1
   26    19    29 1
   27    16    17 1
   28    16    18 1
   29    16    19 1
   30    14    15 1
   31    14    16 1
   32    14    31 1
   33    12    13 1
   34    12    14 1
   35    42    43 1
   36    42    44 1
   37    40    41 1
   38    37    38 1
   39    37    39 1
   40    37    40 1
   41    35    36 1
   42    35    37 1
   43    35    42 1
   44    33    34 1
   45    33    35 1
   46    59    60 1
   47    59    61 1
   48    55    56 1
   49    55    57 1
   50    55    58 1
   51    54    55 1
   52    51    52 1
   53    51    53 1
   54    51    54 1
   55    48    49 1
   56    48    50 1
   57    48    51 1
   58    46    47 1
   59    46    48 1
   60    46    59 1
   61    44    45 1
   62    44    46 1
   63    74    75 1
   64    74    76 1
   65    71    72 1
   66    71    73 1
   67    68    69 1
   68    68    70 1
   69    68    71 1
   70    65    66 1
   71    65    67 1
   72    65    68 1
   73    63    64 1
   74    63    65 1
   75    63    74 1
   76    61    62 1
   77    61    63 1
   78    91    92 1
   79    91    93 1
   80    89    90 1
   81    87    88 1
   82    87    89 1
   83    85    86 1
   84    85    87 1
   85    84    85 1
   86    83    84 1
   87    83    89 1
   88    80    81 1
   89    80    82 1
   90    80    83 1
   91    78    79 1
   92    78    80 1
   93    78    91 1
   94    76    77 1
   95    76    78 1
   96   111   112 1
   97   111   113 1
   98   109   110 1
   99   107   108 1
  100   107   109 1
  101   105   106 1
  102   105   107 1
  103   103   104 1
  104   103   105 1
  105   101   102 1
  106   101   103 1
  107   100   101 1
  108   100   109 1
  109    97    98 1
  110    97    99 1
  111    97   100 1
  112    95    96 1
  113    95    97 1
  114    95   111 1
  115    93    94 1
  116    93    95 1
  117   135   136 1
  118   135   137 1
  119   132   133 1
  120   132   134 1
  121   129   130 1
  122   129   131 1
  123   128   129 1
  124   128   132 1
  125   126   127 1
  126   126   128 1
  127   123   124 1
  128   123   125 1
  129   123   126 1
  130   120   121 1
  131   120   122 1
  132   120   123 1
  133   117   118 1
  134   117   119 1
  135   117   120 1
  136   115   116 1
  137   115   117 1
  138   115   135 1
  139   113   114 1
  140   113   115 1
  141   159   160 1
  142   159   161 1
  143   156   157 1
  144   156   158 1
  145   154   155 1
  146   154   156 1
  147   152   153 1
  148   152   154 1
  149   150   151 1
  150   150   152 1
  151   149   150 1
  152   149   158 1
  153   147   148 1
  154   147   149 1
  155   145   146 1
  156   145   147 1
  157   144   145 1
  158   144   158 1
  159   141   142 1
  160   141   143 1
  161   141   144 1
  162   139   140 1
  163   139   141 1
  164   139   159 1
  165   137   138 1
  166   137   139 1
  167   166   167 1
  168   163   164 1
  169   163   165 1
  170   163   166 1
  171   161   162 1
  172   161   163 1
@<TRIPOS>SUBSTRUCTURE
      1  SER              1 ****               0 ****  **** 
      2  TYR             12 ****               0 ****  **** 
      3  SER             33 ****               0 ****  **** 
      4  MET             44 ****               0 ****  **** 
      5  GLU             61 ****               0 ****  **** 
      6  HIE             76 ****               0 ****  **** 
      7  PHE             93 ****               0 ****  **** 
      8  ARG            113 ****               0 ****  **** 
      9  TRP            137 ****               0 ****  **** 
     10  GLY            161 ****               0 ****  **** 
