@<TRIPOS>MOLECULE
default_name
  152   156    11     0     1 
SMALL
USER_CHARGES
@<TRIPOS>ATOM
  1 N      31.130000   36.710000   12.730000 N     1 ALA    -0.4157 ****
  2 H      30.830000   35.990000   13.370000 H     1 ALA     0.2719 ****
  3 CA     31.770000   36.340000   11.490000 C     1 ALA     0.0337 ****
  4 HA     31.290000   36.920000   10.700000 H     1 ALA     0.0823 ****
  5 CB     31.460000   34.860000   11.270000 C     1 ALA    -0.1825 ****
  6 HB1    31.950000   34.560000   10.350000 H     1 ALA     0.0603 ****
  7 HB2    30.410000   34.560000   11.330000 H     1 ALA     0.0603 ****
  8 HB3    32.070000   34.260000   11.940000 H     1 ALA     0.0603 ****
  9 C      33.260000   36.680000   11.460000 C     1 ALA     0.5973 ****
 10 O      33.840000   36.870000   10.390000 O     1 ALA    -0.5679 ****
 11 N      33.910000   36.830000   12.610000 N     2 GLN    -0.4157 ****
 12 H      33.380000   36.730000   13.460000 H     2 GLN     0.2719 ****
 13 CA     35.310000   37.190000   12.760000 C     2 GLN    -0.0031 ****
 14 HA     35.530000   37.990000   12.050000 H     2 GLN     0.0850 ****
 15 CB     35.610000   37.580000   14.200000 C     2 GLN    -0.0036 ****
 16 HB2    35.400000   36.700000   14.810000 H     2 GLN     0.0171 ****
 17 HB3    36.680000   37.730000   14.370000 H     2 GLN     0.0171 ****
 18 CG     34.930000   38.800000   14.810000 C     2 GLN    -0.0645 ****
 19 HG2    35.360000   39.730000   14.430000 H     2 GLN     0.0352 ****
 20 HG3    33.840000   38.750000   14.770000 H     2 GLN     0.0352 ****
 21 CD     35.130000   38.820000   16.320000 C     2 GLN     0.6951 ****
 22 OE1    36.090000   39.410000   16.820000 O     2 GLN    -0.6086 ****
 23 NE2    34.380000   37.990000   17.050000 N     2 GLN    -0.9407 ****
 24 HE21   33.730000   37.340000   16.640000 H     2 GLN     0.4251 ****
 25 HE22   34.560000   37.950000   18.040000 H     2 GLN     0.4251 ****
 26 C      36.210000   36.020000   12.400000 C     2 GLN     0.5973 ****
 27 O      35.950000   34.960000   12.980000 O     2 GLN    -0.5679 ****
 28 N      37.200000   36.110000   11.510000 N     3 PRO    -0.2548 ****
 29 CD     37.530000   37.210000   10.640000 C     3 PRO     0.0192 ****
 30 HD2    36.640000   37.500000   10.080000 H     3 PRO     0.0391 ****
 31 HD3    37.910000   37.970000   11.330000 H     3 PRO     0.0391 ****
 32 CG     38.650000   36.700000    9.740000 C     3 PRO     0.0189 ****
 33 HG2    38.230000   36.350000    8.800000 H     3 PRO     0.0213 ****
 34 HG3    39.350000   37.490000    9.480000 H     3 PRO     0.0213 ****
 35 CB     39.390000   35.630000   10.540000 C     3 PRO    -0.0070 ****
 36 HB2    39.760000   34.870000    9.850000 H     3 PRO     0.0253 ****
 37 HB3    40.130000   36.070000   11.200000 H     3 PRO     0.0253 ****
 38 CA     38.200000   35.080000   11.320000 C     3 PRO    -0.0266 ****
 39 HA     38.560000   34.820000   12.320000 H     3 PRO     0.0641 ****
 40 C      37.490000   33.850000   10.770000 C     3 PRO     0.5896 ****
 41 O      36.650000   33.880000    9.880000 O     3 PRO    -0.5748 ****
 42 N      37.850000   32.680000   11.310000 N     4 CYX    -0.4157 ****
 43 H      38.520000   32.750000   12.060000 H     4 CYX     0.2719 ****
 44 CA     37.080000   31.450000   11.280000 C     4 CYX     0.0429 ****
 45 HA     36.490000   31.380000   10.370000 H     4 CYX     0.0766 ****
 46 CB     36.060000   31.380000   12.410000 C     4 CYX    -0.0790 ****
 47 HB2    35.520000   32.320000   12.300000 H     4 CYX     0.0910 ****
 48 HB3    36.590000   31.490000   13.360000 H     4 CYX     0.0910 ****
 49 SG     34.720000   30.170000   12.580000 S     4 CYX    -0.1081 ****
 50 C      38.010000   30.250000   11.330000 C     4 CYX     0.5973 ****
 51 O      39.090000   30.280000   11.920000 O     4 CYX    -0.5679 ****
 52 N      37.490000   29.080000   10.960000 N     5 LYS    -0.3479 ****
 53 H      36.610000   29.170000   10.470000 H     5 LYS     0.2747 ****
 54 CA     38.250000   27.850000   11.060000 C     5 LYS    -0.2400 ****
 55 HA     39.220000   28.060000   10.610000 H     5 LYS     0.1426 ****
 56 CB     37.530000   26.790000   10.230000 C     5 LYS    -0.0094 ****
 57 HB2    36.450000   26.840000   10.390000 H     5 LYS     0.0362 ****
 58 HB3    37.810000   25.800000   10.570000 H     5 LYS     0.0362 ****
 59 CG     37.790000   26.860000    8.720000 C     5 LYS     0.0187 ****
 60 HG2    38.840000   26.890000    8.430000 H     5 LYS     0.0103 ****
 61 HG3    37.360000   27.780000    8.350000 H     5 LYS     0.0103 ****
 62 CD     37.070000   25.700000    8.040000 C     5 LYS    -0.0479 ****
 63 HD2    36.010000   25.760000    8.310000 H     5 LYS     0.0621 ****
 64 HD3    37.370000   24.720000    8.420000 H     5 LYS     0.0621 ****
 65 CE     37.300000   25.820000    6.540000 C     5 LYS    -0.0143 ****
 66 HE2    37.210000   24.810000    6.150000 H     5 LYS     0.1135 ****
 67 HE3    38.330000   26.120000    6.330000 H     5 LYS     0.1135 ****
 68 NZ     36.360000   26.690000    5.820000 N     5 LYS    -0.3854 ****
 69 HZ1    35.400000   26.390000    5.850000 H     5 LYS     0.3400 ****
 70 HZ2    36.680000   26.740000    4.860000 H     5 LYS     0.3400 ****
 71 HZ3    36.270000   27.630000    6.190000 H     5 LYS     0.3400 ****
 72 C      38.390000   27.450000   12.520000 C     5 LYS     0.7341 ****
 73 O      37.420000   27.290000   13.250000 O     5 LYS    -0.5894 ****
 74 N      39.640000   27.590000   12.980000 N     6 ASP    -0.5163 ****
 75 H      40.400000   27.670000   12.320000 H     6 ASP     0.2936 ****
 76 CA     39.980000   27.350000   14.360000 C     6 ASP     0.0381 ****
 77 HA     39.280000   26.620000   14.770000 H     6 ASP     0.0880 ****
 78 CB     41.390000   26.770000   14.350000 C     6 ASP    -0.0303 ****
 79 HB2    41.710000   26.470000   15.340000 H     6 ASP    -0.0122 ****
 80 HB3    41.400000   25.820000   13.800000 H     6 ASP    -0.0122 ****
 81 CG     42.410000   27.750000   13.790000 C     6 ASP     0.7994 ****
 82 OD1    42.940000   28.540000   14.600000 O     6 ASP    -0.8014 ****
 83 OD2    42.540000   27.870000   12.550000 O     6 ASP    -0.8014 ****
 84 C      39.910000   28.540000   15.300000 C     6 ASP     0.5366 ****
 85 O      39.810000   28.340000   16.510000 O     6 ASP    -0.5819 ****
 86 N      39.970000   29.790000   14.830000 N     7 SER    -0.4157 ****
 87 H      39.820000   30.020000   13.850000 H     7 SER     0.2719 ****
 88 CA     40.050000   30.990000   15.630000 C     7 SER    -0.0249 ****
 89 HA     39.860000   30.790000   16.690000 H     7 SER     0.0843 ****
 90 CB     41.440000   31.630000   15.640000 C     7 SER     0.2117 ****
 91 HB2    41.700000   31.910000   14.620000 H     7 SER     0.0352 ****
 92 HB3    41.440000   32.510000   16.270000 H     7 SER     0.0352 ****
 93 OG     42.420000   30.700000   16.050000 O     7 SER    -0.6546 ****
 94 HG     42.650000   30.160000   15.290000 H     7 SER     0.4275 ****
 95 C      38.970000   31.960000   15.190000 C     7 SER     0.5973 ****
 96 O      39.030000   32.380000   14.030000 O     7 SER    -0.5679 ****
 97 N      38.110000   32.470000   16.070000 N     8 TYR    -0.4157 ****
 98 H      37.940000   31.950000   16.920000 H     8 TYR     0.2719 ****
 99 CA     37.330000   33.680000   15.910000 C     8 TYR    -0.0014 ****
100 HA     37.340000   33.980000   14.870000 H     8 TYR     0.0876 ****
101 CB     37.970000   34.830000   16.680000 C     8 TYR    -0.0152 ****
102 HB2    38.240000   34.470000   17.680000 H     8 TYR     0.0295 ****
103 HB3    37.320000   35.700000   16.680000 H     8 TYR     0.0295 ****
104 CG     39.300000   35.310000   16.170000 C     8 TYR    -0.0011 ****
105 CD1    39.340000   36.050000   14.980000 C     8 TYR    -0.1906 ****
106 HD1    38.510000   36.100000   14.300000 H     8 TYR     0.1699 ****
107 CE1    40.570000   36.350000   14.380000 C     8 TYR    -0.2341 ****
108 HE1    40.690000   36.700000   13.360000 H     8 TYR     0.1656 ****
109 CZ     41.720000   36.160000   15.170000 C     8 TYR     0.3226 ****
110 OH     42.950000   36.670000   14.870000 O     8 TYR    -0.5579 ****
111 HH     43.630000   36.520000   15.530000 H     8 TYR     0.3992 ****
112 CE2    41.720000   35.470000   16.400000 C     8 TYR    -0.2341 ****
113 HE2    42.620000   35.300000   16.970000 H     8 TYR     0.1656 ****
114 CD2    40.480000   34.990000   16.850000 C     8 TYR    -0.1906 ****
115 HD2    40.460000   34.440000   17.770000 H     8 TYR     0.1699 ****
116 C      35.890000   33.480000   16.390000 C     8 TYR     0.5973 ****
117 O      35.700000   33.140000   17.550000 O     8 TYR    -0.5679 ****
118 N      34.940000   33.480000   15.450000 N     9 CYX    -0.4157 ****
119 H      35.110000   33.750000   14.500000 H     9 CYX     0.2719 ****
120 CA     33.620000   32.960000   15.740000 C     9 CYX     0.0429 ****
121 HA     33.550000   32.550000   16.750000 H     9 CYX     0.0766 ****
122 CB     33.250000   31.880000   14.730000 C     9 CYX    -0.0790 ****
123 HB2    33.200000   32.260000   13.710000 H     9 CYX     0.0910 ****
124 HB3    32.240000   31.480000   14.870000 H     9 CYX     0.0910 ****
125 SG     34.370000   30.460000   14.560000 S     9 CYX    -0.1081 ****
126 C      32.530000   34.020000   15.630000 C     9 CYX     0.5973 ****
127 O      32.410000   34.620000   14.570000 O     9 CYX    -0.5679 ****
128 N      31.720000   34.320000   16.650000 N    10 PRO    -0.2548 ****
129 CD     31.760000   33.820000   18.010000 C    10 PRO     0.0192 ****
130 HD2    32.470000   34.410000   18.580000 H    10 PRO     0.0391 ****
131 HD3    32.040000   32.780000   18.190000 H    10 PRO     0.0391 ****
132 CG     30.370000   34.120000   18.570000 C    10 PRO     0.0189 ****
133 HG2    30.500000   34.180000   19.650000 H    10 PRO     0.0213 ****
134 HG3    29.660000   33.330000   18.340000 H    10 PRO     0.0213 ****
135 CB     30.040000   35.470000   17.940000 C    10 PRO    -0.0070 ****
136 HB2    30.630000   36.290000   18.360000 H    10 PRO     0.0253 ****
137 HB3    28.980000   35.740000   17.860000 H    10 PRO     0.0253 ****
138 CA     30.560000   35.190000   16.540000 C    10 PRO    -0.0266 ****
139 HA     29.830000   34.670000   15.920000 H    10 PRO     0.0641 ****
140 C      30.850000   36.560000   15.940000 C    10 PRO     0.5896 ****
141 O      31.980000   37.050000   15.950000 O    10 PRO    -0.5748 ****
142 N      29.870000   37.060000   15.190000 N    11 SER    -0.4157 ****
143 H      28.920000   36.740000   15.330000 H    11 SER     0.2719 ****
144 CA     30.020000   38.200000   14.310000 C    11 SER    -0.0249 ****
145 HA     30.670000   38.890000   14.850000 H    11 SER     0.0843 ****
146 CB     28.690000   38.830000   13.930000 C    11 SER     0.2117 ****
147 HB2    28.230000   38.070000   13.300000 H    11 SER     0.0352 ****
148 HB3    28.710000   39.690000   13.250000 H    11 SER     0.0352 ****
149 OG     27.930000   39.260000   15.040000 O    11 SER    -0.6546 ****
150 HG     27.170000   38.680000   15.080000 H    11 SER     0.4275 ****
151 C      30.760000   37.970000   13.000000 C    11 SER     0.5973 ****
152 O      31.060000   38.900000   12.250000 O    11 SER    -0.5679 ****
@<TRIPOS>BOND
    1     9    10 1
    2     9    11 1
    3     5     6 1
    4     5     7 1
    5     5     8 1
    6     3     4 1
    7     3     5 1
    8     3     9 1
    9     1     2 1
   10     1     3 1
   11     1   151 1
   12    26    27 1
   13    26    28 1
   14    23    24 1
   15    23    25 1
   16    21    22 1
   17    21    23 1
   18    18    19 1
   19    18    20 1
   20    18    21 1
   21    15    16 1
   22    15    17 1
   23    15    18 1
   24    13    14 1
   25    13    15 1
   26    13    26 1
   27    11    12 1
   28    11    13 1
   29    40    41 1
   30    40    42 1
   31    38    39 1
   32    38    40 1
   33    35    36 1
   34    35    37 1
   35    35    38 1
   36    32    33 1
   37    32    34 1
   38    32    35 1
   39    29    30 1
   40    29    31 1
   41    29    32 1
   42    28    29 1
   43    28    38 1
   44    50    51 1
   45    50    52 1
   46    49   125 1
   47    46    47 1
   48    46    48 1
   49    46    49 1
   50    44    45 1
   51    44    46 1
   52    44    50 1
   53    42    43 1
   54    42    44 1
   55    72    73 1
   56    72    74 1
   57    68    69 1
   58    68    70 1
   59    68    71 1
   60    65    66 1
   61    65    67 1
   62    65    68 1
   63    62    63 1
   64    62    64 1
   65    62    65 1
   66    59    60 1
   67    59    61 1
   68    59    62 1
   69    56    57 1
   70    56    58 1
   71    56    59 1
   72    54    55 1
   73    54    56 1
   74    54    72 1
   75    52    53 1
   76    52    54 1
   77    84    85 1
   78    84    86 1
   79    81    82 1
   80    81    83 1
   81    78    79 1
   82    78    80 1
   83    78    81 1
   84    76    77 1
   85    76    78 1
   86    76    84 1
   87    74    75 1
   88    74    76 1
   89    95    96 1
   90    95    97 1
   91    93    94 1
   92    90    91 1
   93    90    92 1
   94    90    93 1
   95    88    89 1
   96    88    90 1
   97    88    95 1
   98    86    87 1
   99    86    88 1
  100   116   117 1
  101   116   118 1
  102   114   115 1
  103   112   113 1
  104   112   114 1
  105   110   111 1
  106   109   110 1
  107   109   112 1
  108   107   108 1
  109   107   109 1
  110   105   106 1
  111   105   107 1
  112   104   105 1
  113   104   114 1
  114   101   102 1
  115   101   103 1
  116   101   104 1
  117    99   100 1
  118    99   101 1
  119    99   116 1
  120    97    98 1
  121    97    99 1
  122   126   127 1
  123   126   128 1
  124   122   123 1
  125   122   124 1
  126   122   125 1
  127   120   121 1
  128   120   122 1
  129   120   126 1
  130   118   119 1
  131   118   120 1
  132   140   141 1
  133   140   142 1
  134   138   139 1
  135   138   140 1
  136   135   136 1
  137   135   137 1
  138   135   138 1
  139   132   133 1
  140   132   134 1
  141   132   135 1
  142   129   130 1
  143   129   131 1
  144   129   132 1
  145   128   129 1
  146   128   138 1
  147   151   152 1
  148   149   150 1
  149   146   147 1
  150   146   148 1
  151   146   149 1
  152   144   145 1
  153   144   146 1
  154   144   151 1
  155   142   143 1
  156   142   144 1
@<TRIPOS>SUBSTRUCTURE
      1  ALA              1 ****               0 ****  **** 
      2  GLN             11 ****               0 ****  **** 
      3  PRO             28 ****               0 ****  **** 
      4  CYX             42 ****               0 ****  **** 
      5  LYS             52 ****               0 ****  **** 
      6  ASP             74 ****               0 ****  **** 
      7  SER             86 ****               0 ****  **** 
      8  TYR             97 ****               0 ****  **** 
      9  CYX            118 ****               0 ****  **** 
     10  PRO            128 ****               0 ****  **** 
     11  SER            142 ****               0 ****  **** 
