@<TRIPOS>MOLECULE
default_name
   80    81     5     0     1 
SMALL
USER_CHARGES
@<TRIPOS>ATOM
  1 N      -2.516000   -0.575000    0.274000 N     1 VAL    -0.4157 ****
  2 H      -2.548000   -0.781000   -0.717000 H     1 VAL     0.2719 ****
  3 CA     -2.703000    0.845000    0.581000 C     1 VAL    -0.0875 ****
  4 HA     -2.594000    0.991000    1.663000 H     1 VAL     0.0969 ****
  5 CB     -4.079000    1.378000    0.124000 C     1 VAL     0.2985 ****
  6 HB     -4.159000    2.427000    0.440000 H     1 VAL    -0.0297 ****
  7 CG1    -5.226000    0.612000    0.792000 C     1 VAL    -0.3192 ****
  8 HG11   -5.189000   -0.458000    0.560000 H     1 VAL     0.0791 ****
  9 HG12   -6.196000    0.990000    0.451000 H     1 VAL     0.0791 ****
 10 HG13   -5.188000    0.727000    1.880000 H     1 VAL     0.0791 ****
 11 CG2    -4.267000    1.355000   -1.395000 C     1 VAL    -0.3192 ****
 12 HG21   -4.158000    0.348000   -1.808000 H     1 VAL     0.0791 ****
 13 HG22   -3.538000    2.006000   -1.882000 H     1 VAL     0.0791 ****
 14 HG23   -5.260000    1.726000   -1.669000 H     1 VAL     0.0791 ****
 15 C      -1.522000    1.560000   -0.116000 C     1 VAL     0.5973 ****
 16 O      -0.769000    0.965000   -0.896000 O     1 VAL    -0.5679 ****
 17 N      -1.351000    2.884000    0.195000 N     2 PHE    -0.4157 ****
 18 H      -1.812000    3.239000    1.025000 H     2 PHE     0.2719 ****
 19 CA     -0.196000    3.655000   -0.275000 C     2 PHE    -0.0024 ****
 20 HA     -0.406000    4.692000    0.020000 H     2 PHE     0.0978 ****
 21 CB      0.072000    3.639000   -1.797000 C     2 PHE    -0.0343 ****
 22 HB2     0.943000    4.272000   -2.014000 H     2 PHE     0.0295 ****
 23 HB3     0.370000    2.643000   -2.143000 H     2 PHE     0.0295 ****
 24 CG     -1.082000    4.128000   -2.643000 C     2 PHE     0.0118 ****
 25 CD1    -1.539000    5.448000   -2.538000 C     2 PHE    -0.1256 ****
 26 HD1    -1.064000    6.145000   -1.851000 H     2 PHE     0.1330 ****
 27 CE1    -2.605000    5.894000   -3.322000 C     2 PHE    -0.1704 ****
 28 HE1    -2.951000    6.921000   -3.232000 H     2 PHE     0.1430 ****
 29 CZ     -3.220000    5.030000   -4.225000 C     2 PHE    -0.1072 ****
 30 HZ     -4.048000    5.380000   -4.835000 H     2 PHE     0.1297 ****
 31 CE2    -2.765000    3.720000   -4.352000 C     2 PHE    -0.1704 ****
 32 HE2    -3.241000    3.047000   -5.060000 H     2 PHE     0.1430 ****
 33 CD2    -1.699000    3.272000   -3.568000 C     2 PHE    -0.1256 ****
 34 HD2    -1.360000    2.244000   -3.679000 H     2 PHE     0.1330 ****
 35 C       1.036000    3.224000    0.553000 C     2 PHE     0.5973 ****
 36 O       1.400000    3.853000    1.544000 O     2 PHE    -0.5679 ****
 37 N       1.621000    2.037000    0.177000 N     3 ASH    -0.4157 ****
 38 H       1.079000    1.432000   -0.444000 H     3 ASH     0.2719 ****
 39 CA      2.763000    1.453000    0.893000 C     3 ASH     0.0341 ****
 40 HA      2.553000    1.454000    1.969000 H     3 ASH     0.0864 ****
 41 CB      4.053000    2.217000    0.583000 C     3 ASH    -0.0316 ****
 42 HB2     4.318000    2.179000   -0.481000 H     3 ASH     0.0488 ****
 43 HB3     3.925000    3.282000    0.814000 H     3 ASH     0.0488 ****
 44 CG      5.228000    1.735000    1.396000 C     3 ASH     0.6462 ****
 45 OD1     5.709000    2.372000    2.322000 O     3 ASH    -0.5554 ****
 46 OD2     5.746000    0.553000    1.003000 O     3 ASH    -0.6376 ****
 47 HD2     5.270000    0.114000    0.257000 H     3 ASH     0.4747 ****
 48 C       2.872000    0.001000    0.396000 C     3 ASH     0.5973 ****
 49 O       3.785000   -0.362000   -0.349000 O     3 ASH    -0.5679 ****
 50 N       1.872000   -0.849000    0.803000 N     4 GLY    -0.4157 ****
 51 H       1.161000   -0.535000    1.465000 H     4 GLY     0.2719 ****
 52 CA      1.881000   -2.241000    0.393000 C     4 GLY    -0.0252 ****
 53 HA2     2.912000   -2.608000    0.341000 H     4 GLY     0.0698 ****
 54 HA3     1.476000   -2.306000   -0.620000 H     4 GLY     0.0698 ****
 55 C       1.115000   -3.128000    1.368000 C     4 GLY     0.5973 ****
 56 O       1.657000   -3.615000    2.362000 O     4 GLY    -0.5679 ****
 57 N      -0.223000   -3.341000    1.191000 N     5 ARG    -0.3479 ****
 58 H      -0.627000   -3.786000    2.009000 H     5 ARG     0.2747 ****
 59 CA     -1.131000   -2.619000    0.302000 C     5 ARG    -0.2637 ****
 60 HA     -0.598000   -2.334000   -0.610000 H     5 ARG     0.1560 ****
 61 CB     -2.332000   -3.504000   -0.069000 C     5 ARG    -0.0007 ****
 62 HB2    -3.078000   -2.909000   -0.606000 H     5 ARG     0.0327 ****
 63 HB3    -2.825000   -3.869000    0.841000 H     5 ARG     0.0327 ****
 64 CG     -1.917000   -4.693000   -0.949000 C     5 ARG     0.0390 ****
 65 HG2    -1.202000   -5.315000   -0.397000 H     5 ARG     0.0285 ****
 66 HG3    -1.400000   -4.328000   -1.845000 H     5 ARG     0.0285 ****
 67 CD     -3.097000   -5.578000   -1.356000 C     5 ARG     0.0486 ****
 68 HD2    -3.664000   -5.879000   -0.468000 H     5 ARG     0.0687 ****
 69 HD3    -2.703000   -6.487000   -1.826000 H     5 ARG     0.0687 ****
 70 NE     -3.961000   -4.902000   -2.306000 N     5 ARG    -0.5295 ****
 71 HE     -4.065000   -3.907000   -2.156000 H     5 ARG     0.3456 ****
 72 CZ     -5.123000   -5.425000   -2.755000 C     5 ARG     0.8076 ****
 73 NH1    -5.576000   -6.613000   -2.610000 N     5 ARG    -0.8627 ****
 74 HH11   -5.036059   -7.297293   -2.099797 H     5 ARG     0.4478 ****
 75 HH12   -6.471311   -6.860675   -3.006454 H     5 ARG     0.4478 ****
 76 NH2    -5.843000   -4.520000   -3.438000 N     5 ARG    -0.8627 ****
 77 HH21   -5.307000   -4.096000   -4.186000 H     5 ARG     0.4478 ****
 78 HH22   -6.656000   -4.984000   -3.835000 H     5 ARG     0.4478 ****
 79 C      -1.564000   -1.293000    0.979000 C     5 ARG     0.7341 ****
 80 O      -1.012000   -0.844000    1.983000 O     5 ARG    -0.5894 ****
@<TRIPOS>BOND
    1    15    16 1
    2    15    17 1
    3    11    12 1
    4    11    13 1
    5    11    14 1
    6     7     8 1
    7     7     9 1
    8     7    10 1
    9     5     6 1
   10     5     7 1
   11     5    11 1
   12     3     4 1
   13     3     5 1
   14     3    15 1
   15     1     2 1
   16     1     3 1
   17     1    79 1
   18    35    36 1
   19    35    37 1
   20    33    34 1
   21    31    32 1
   22    31    33 1
   23    29    30 1
   24    29    31 1
   25    27    28 1
   26    27    29 1
   27    25    26 1
   28    25    27 1
   29    24    25 1
   30    24    33 1
   31    21    22 1
   32    21    23 1
   33    21    24 1
   34    19    20 1
   35    19    21 1
   36    19    35 1
   37    17    18 1
   38    17    19 1
   39    48    49 1
   40    48    50 1
   41    46    47 1
   42    44    45 1
   43    44    46 1
   44    41    42 1
   45    41    43 1
   46    41    44 1
   47    39    40 1
   48    39    41 1
   49    39    48 1
   50    37    38 1
   51    37    39 1
   52    55    56 1
   53    55    57 1
   54    52    53 1
   55    52    54 1
   56    52    55 1
   57    50    51 1
   58    50    52 1
   59    79    80 1
   60    76    77 1
   61    76    78 1
   62    73    74 1
   63    73    75 1
   64    72    73 1
   65    72    76 1
   66    70    71 1
   67    70    72 1
   68    67    68 1
   69    67    69 1
   70    67    70 1
   71    64    65 1
   72    64    66 1
   73    64    67 1
   74    61    62 1
   75    61    63 1
   76    61    64 1
   77    59    60 1
   78    59    61 1
   79    59    79 1
   80    57    58 1
   81    57    59 1
@<TRIPOS>SUBSTRUCTURE
      1  VAL              1 ****               0 ****  **** 
      2  PHE             17 ****               0 ****  **** 
      3  ASH             37 ****               0 ****  **** 
      4  GLY             50 ****               0 ****  **** 
      5  ARG             57 ****               0 ****  **** 
