@<TRIPOS>MOLECULE
default_name
  142   146    10     0     1 
SMALL
USER_CHARGES
@<TRIPOS>ATOM
  1 N      24.210000   25.870000   32.270000 N     1 GLU    -0.5163 ****
  2 H      24.370000   26.870000   32.280000 H     1 GLU     0.2936 ****
  3 CA     23.900000   25.390000   33.600000 C     1 GLU     0.0397 ****
  4 HA     23.720000   24.320000   33.500000 H     1 GLU     0.1105 ****
  5 CB     25.050000   25.580000   34.590000 C     1 GLU     0.0560 ****
  6 HB2    25.950000   25.140000   34.160000 H     1 GLU    -0.0173 ****
  7 HB3    25.090000   26.670000   34.690000 H     1 GLU    -0.0173 ****
  8 CG     24.970000   24.850000   35.930000 C     1 GLU     0.0136 ****
  9 HG2    24.050000   25.070000   36.460000 H     1 GLU    -0.0425 ****
 10 HG3    24.980000   23.790000   35.690000 H     1 GLU    -0.0425 ****
 11 CD     26.170000   25.240000   36.780000 C     1 GLU     0.8054 ****
 12 OE1    25.990000   25.950000   37.800000 O     1 GLU    -0.8188 ****
 13 OE2    27.370000   25.050000   36.510000 O     1 GLU    -0.8188 ****
 14 C      22.540000   25.920000   34.050000 C     1 GLU     0.5366 ****
 15 O      22.170000   25.600000   35.180000 O     1 GLU    -0.5819 ****
 16 N      21.850000   26.680000   33.210000 N     2 VAL    -0.4157 ****
 17 H      22.200000   26.720000   32.270000 H     2 VAL     0.2719 ****
 18 CA     20.540000   27.220000   33.550000 C     2 VAL    -0.0875 ****
 19 HA     20.380000   27.140000   34.620000 H     2 VAL     0.0969 ****
 20 CB     19.480000   26.510000   32.720000 C     2 VAL     0.2985 ****
 21 HB     19.410000   26.790000   31.670000 H     2 VAL    -0.0297 ****
 22 CG1    19.650000   25.000000   32.780000 C     2 VAL    -0.3192 ****
 23 HG11   18.890000   24.480000   32.180000 H     2 VAL     0.0791 ****
 24 HG12   19.400000   24.670000   33.790000 H     2 VAL     0.0791 ****
 25 HG13   20.610000   24.750000   32.340000 H     2 VAL     0.0791 ****
 26 CG2    18.100000   26.880000   33.260000 C     2 VAL    -0.3192 ****
 27 HG21   17.420000   26.280000   32.650000 H     2 VAL     0.0791 ****
 28 HG22   17.870000   27.930000   33.070000 H     2 VAL     0.0791 ****
 29 HG23   18.030000   26.620000   34.320000 H     2 VAL     0.0791 ****
 30 C      20.440000   28.700000   33.210000 C     2 VAL     0.5973 ****
 31 O      20.120000   29.450000   34.130000 O     2 VAL    -0.5679 ****
 32 N      20.730000   29.080000   31.960000 N     3 ASP    -0.5163 ****
 33 H      21.090000   28.370000   31.350000 H     3 ASP     0.2936 ****
 34 CA     20.710000   30.430000   31.430000 C     3 ASP     0.0381 ****
 35 HA     21.490000   31.010000   31.920000 H     3 ASP     0.0880 ****
 36 CB     21.150000   30.480000   29.970000 C     3 ASP    -0.0303 ****
 37 HB2    20.400000   29.910000   29.410000 H     3 ASP    -0.0122 ****
 38 HB3    21.100000   31.510000   29.630000 H     3 ASP    -0.0122 ****
 39 CG     22.490000   29.890000   29.550000 C     3 ASP     0.7994 ****
 40 OD1    23.390000   29.660000   30.390000 O     3 ASP    -0.8014 ****
 41 OD2    22.630000   29.770000   28.320000 O     3 ASP    -0.8014 ****
 42 C      19.400000   31.190000   31.580000 C     3 ASP     0.5366 ****
 43 O      18.470000   30.820000   30.870000 O     3 ASP    -0.5819 ****
 44 N      19.290000   32.210000   32.430000 N     4 PRO    -0.2548 ****
 45 CD     20.270000   32.770000   33.330000 C     4 PRO     0.0192 ****
 46 HD2    21.000000   33.300000   32.710000 H     4 PRO     0.0391 ****
 47 HD3    20.670000   32.000000   33.990000 H     4 PRO     0.0391 ****
 48 CG     19.580000   33.770000   34.250000 C     4 PRO     0.0189 ****
 49 HG2    20.250000   34.490000   34.730000 H     4 PRO     0.0213 ****
 50 HG3    19.110000   33.220000   35.070000 H     4 PRO     0.0213 ****
 51 CB     18.510000   34.350000   33.340000 C     4 PRO    -0.0070 ****
 52 HB2    19.000000   35.140000   32.770000 H     4 PRO     0.0253 ****
 53 HB3    17.690000   34.680000   33.990000 H     4 PRO     0.0253 ****
 54 CA     18.150000   33.100000   32.550000 C     4 PRO    -0.0266 ****
 55 HA     17.340000   32.590000   33.080000 H     4 PRO     0.0641 ****
 56 C      17.650000   33.600000   31.200000 C     4 PRO     0.5896 ****
 57 O      18.410000   34.140000   30.390000 O     4 PRO    -0.5748 ****
 58 N      16.340000   33.550000   30.960000 N     5 GLU    -0.5163 ****
 59 H      15.740000   33.040000   31.590000 H     5 GLU     0.2936 ****
 60 CA     15.710000   34.120000   29.790000 C     5 GLU     0.0397 ****
 61 HA     16.280000   35.030000   29.570000 H     5 GLU     0.1105 ****
 62 CB     14.250000   34.530000   29.920000 C     5 GLU     0.0560 ****
 63 HB2    13.690000   33.600000   30.060000 H     5 GLU    -0.0173 ****
 64 HB3    13.930000   35.120000   29.060000 H     5 GLU    -0.0173 ****
 65 CG     13.820000   35.420000   31.080000 C     5 GLU     0.0136 ****
 66 HG2    14.460000   36.290000   31.120000 H     5 GLU    -0.0425 ****
 67 HG3    13.710000   34.830000   31.990000 H     5 GLU    -0.0425 ****
 68 CD     12.430000   35.970000   30.790000 C     5 GLU     0.8054 ****
 69 OE1    12.320000   37.090000   30.260000 O     5 GLU    -0.8188 ****
 70 OE2    11.420000   35.370000   31.230000 O     5 GLU    -0.8188 ****
 71 C      15.970000   33.390000   28.480000 C     5 GLU     0.5366 ****
 72 O      15.490000   33.950000   27.490000 O     5 GLU    -0.5819 ****
 73 N      16.650000   32.240000   28.540000 N     6 HIP    -0.3479 ****
 74 H      17.160000   32.090000   29.410000 H     6 HIP     0.2747 ****
 75 CA     16.830000   31.290000   27.470000 C     6 HIP    -0.1354 ****
 76 HA     16.410000   31.700000   26.560000 H     6 HIP     0.1212 ****
 77 CB     16.050000   30.010000   27.770000 C     6 HIP    -0.0414 ****
 78 HB2    16.460000   29.580000   28.690000 H     6 HIP     0.0810 ****
 79 HB3    16.140000   29.270000   26.980000 H     6 HIP     0.0810 ****
 80 CG     14.580000   30.310000   27.870000 C     6 HIP    -0.0012 ****
 81 ND1    13.720000   30.430000   26.790000 N     6 HIP    -0.1513 ****
 82 HD1    14.090000   30.620000   25.870000 H     6 HIP     0.3866 ****
 83 CE1    12.480000   30.610000   27.270000 C     6 HIP    -0.0170 ****
 84 HE1    11.540000   30.730000   26.760000 H     6 HIP     0.2681 ****
 85 NE2    12.490000   30.520000   28.610000 N     6 HIP    -0.1718 ****
 86 HE2    11.680000   30.690000   29.200000 H     6 HIP     0.3911 ****
 87 CD2    13.800000   30.310000   29.000000 C     6 HIP    -0.1141 ****
 88 HD2    14.180000   30.220000   30.000000 H     6 HIP     0.2317 ****
 89 C      18.310000   31.070000   27.180000 C     6 HIP     0.7341 ****
 90 O      18.800000   29.960000   27.430000 O     6 HIP    -0.5894 ****
 91 N      19.060000   32.060000   26.700000 N     7 PRO    -0.2548 ****
 92 CD     18.670000   33.450000   26.540000 C     7 PRO     0.0192 ****
 93 HD2    17.650000   33.430000   26.150000 H     7 PRO     0.0391 ****
 94 HD3    18.660000   33.990000   27.480000 H     7 PRO     0.0391 ****
 95 CG     19.670000   34.050000   25.550000 C     7 PRO     0.0189 ****
 96 HG2    19.510000   33.730000   24.520000 H     7 PRO     0.0213 ****
 97 HG3    19.700000   35.140000   25.590000 H     7 PRO     0.0213 ****
 98 CB     20.970000   33.330000   25.910000 C     7 PRO    -0.0070 ****
 99 HB2    21.560000   33.250000   25.000000 H     7 PRO     0.0253 ****
100 HB3    21.500000   33.820000   26.720000 H     7 PRO     0.0253 ****
101 CA     20.460000   31.960000   26.340000 C     7 PRO    -0.0266 ****
102 HA     20.980000   31.700000   27.260000 H     7 PRO     0.0641 ****
103 C      20.720000   30.900000   25.270000 C     7 PRO     0.5896 ****
104 O      20.000000   30.890000   24.280000 O     7 PRO    -0.5748 ****
105 N      21.430000   29.850000   25.680000 N     8 ASN    -0.4157 ****
106 H      22.040000   29.960000   26.480000 H     8 ASN     0.2719 ****
107 CA     21.560000   28.570000   25.010000 C     8 ASN     0.0143 ****
108 HA     20.740000   28.470000   24.300000 H     8 ASN     0.1048 ****
109 CB     22.890000   28.520000   24.260000 C     8 ASN    -0.2041 ****
110 HB2    23.710000   28.550000   24.970000 H     8 ASN     0.0797 ****
111 HB3    23.000000   27.630000   23.640000 H     8 ASN     0.0797 ****
112 CG     23.130000   29.670000   23.300000 C     8 ASN     0.7130 ****
113 OD1    23.940000   30.520000   23.670000 O     8 ASN    -0.5931 ****
114 ND2    22.410000   29.820000   22.180000 N     8 ASN    -0.9191 ****
115 HD21   21.710000   29.110000   22.000000 H     8 ASN     0.4196 ****
116 HD22   22.490000   30.610000   21.570000 H     8 ASN     0.4196 ****
117 C      21.390000   27.350000   25.900000 C     8 ASN     0.5973 ****
118 O      21.530000   26.200000   25.480000 O     8 ASN    -0.5679 ****
119 N      21.020000   27.530000   27.170000 N     9 ALA    -0.4157 ****
120 H      21.030000   28.490000   27.460000 H     9 ALA     0.2719 ****
121 CA     20.830000   26.500000   28.180000 C     9 ALA     0.0337 ****
122 HA     20.840000   25.570000   27.620000 H     9 ALA     0.0823 ****
123 CB     19.430000   26.580000   28.780000 C     9 ALA    -0.1825 ****
124 HB1    18.660000   26.540000   28.000000 H     9 ALA     0.0603 ****
125 HB2    19.250000   27.520000   29.320000 H     9 ALA     0.0603 ****
126 HB3    19.210000   25.750000   29.440000 H     9 ALA     0.0603 ****
127 C      21.990000   26.400000   29.160000 C     9 ALA     0.5973 ****
128 O      21.710000   26.770000   30.300000 O     9 ALA    -0.5679 ****
129 N      23.180000   25.860000   28.920000 N    10 PRO    -0.2548 ****
130 CD     23.450000   24.970000   27.810000 C    10 PRO     0.0192 ****
131 HD2    22.580000   24.340000   27.640000 H    10 PRO     0.0391 ****
132 HD3    23.660000   25.670000   27.010000 H    10 PRO     0.0391 ****
133 CG     24.640000   24.110000   28.260000 C    10 PRO     0.0189 ****
134 HG2    24.270000   23.330000   28.920000 H    10 PRO     0.0213 ****
135 HG3    25.100000   23.690000   27.360000 H    10 PRO     0.0213 ****
136 CB     25.420000   25.140000   29.070000 C    10 PRO    -0.0070 ****
137 HB2    26.110000   24.660000   29.750000 H    10 PRO     0.0253 ****
138 HB3    25.940000   25.820000   28.390000 H    10 PRO     0.0253 ****
139 CA     24.310000   25.860000   29.830000 C    10 PRO    -0.0266 ****
140 HA     24.590000   26.900000   30.040000 H    10 PRO     0.0641 ****
141 C      23.930000   25.200000   31.150000 C    10 PRO     0.5896 ****
142 O      23.480000   24.050000   31.140000 O    10 PRO    -0.5748 ****
@<TRIPOS>BOND
    1    14    15 1
    2    14    16 1
    3    11    12 1
    4    11    13 1
    5     8     9 1
    6     8    10 1
    7     8    11 1
    8     5     6 1
    9     5     7 1
   10     5     8 1
   11     3     4 1
   12     3     5 1
   13     3    14 1
   14     1     2 1
   15     1     3 1
   16     1   141 1
   17    30    31 1
   18    30    32 1
   19    26    27 1
   20    26    28 1
   21    26    29 1
   22    22    23 1
   23    22    24 1
   24    22    25 1
   25    20    21 1
   26    20    22 1
   27    20    26 1
   28    18    19 1
   29    18    20 1
   30    18    30 1
   31    16    17 1
   32    16    18 1
   33    42    43 1
   34    42    44 1
   35    39    40 1
   36    39    41 1
   37    36    37 1
   38    36    38 1
   39    36    39 1
   40    34    35 1
   41    34    36 1
   42    34    42 1
   43    32    33 1
   44    32    34 1
   45    56    57 1
   46    56    58 1
   47    54    55 1
   48    54    56 1
   49    51    52 1
   50    51    53 1
   51    51    54 1
   52    48    49 1
   53    48    50 1
   54    48    51 1
   55    45    46 1
   56    45    47 1
   57    45    48 1
   58    44    45 1
   59    44    54 1
   60    71    72 1
   61    71    73 1
   62    68    69 1
   63    68    70 1
   64    65    66 1
   65    65    67 1
   66    65    68 1
   67    62    63 1
   68    62    64 1
   69    62    65 1
   70    60    61 1
   71    60    62 1
   72    60    71 1
   73    58    59 1
   74    58    60 1
   75    89    90 1
   76    89    91 1
   77    87    88 1
   78    85    86 1
   79    85    87 1
   80    83    84 1
   81    83    85 1
   82    81    82 1
   83    81    83 1
   84    80    81 1
   85    80    87 1
   86    77    78 1
   87    77    79 1
   88    77    80 1
   89    75    76 1
   90    75    77 1
   91    75    89 1
   92    73    74 1
   93    73    75 1
   94   103   104 1
   95   103   105 1
   96   101   102 1
   97   101   103 1
   98    98    99 1
   99    98   100 1
  100    98   101 1
  101    95    96 1
  102    95    97 1
  103    95    98 1
  104    92    93 1
  105    92    94 1
  106    92    95 1
  107    91    92 1
  108    91   101 1
  109   117   118 1
  110   117   119 1
  111   114   115 1
  112   114   116 1
  113   112   113 1
  114   112   114 1
  115   109   110 1
  116   109   111 1
  117   109   112 1
  118   107   108 1
  119   107   109 1
  120   107   117 1
  121   105   106 1
  122   105   107 1
  123   127   128 1
  124   127   129 1
  125   123   124 1
  126   123   125 1
  127   123   126 1
  128   121   122 1
  129   121   123 1
  130   121   127 1
  131   119   120 1
  132   119   121 1
  133   141   142 1
  134   139   140 1
  135   139   141 1
  136   136   137 1
  137   136   138 1
  138   136   139 1
  139   133   134 1
  140   133   135 1
  141   133   136 1
  142   130   131 1
  143   130   132 1
  144   130   133 1
  145   129   130 1
  146   129   139 1
@<TRIPOS>SUBSTRUCTURE
      1  GLU              1 ****               0 ****  **** 
      2  VAL             16 ****               0 ****  **** 
      3  ASP             32 ****               0 ****  **** 
      4  PRO             44 ****               0 ****  **** 
      5  GLU             58 ****               0 ****  **** 
      6  HIP             73 ****               0 ****  **** 
      7  PRO             91 ****               0 ****  **** 
      8  ASN            105 ****               0 ****  **** 
      9  ALA            119 ****               0 ****  **** 
     10  PRO            129 ****               0 ****  **** 
