@<TRIPOS>MOLECULE
default_name
   84    86     5     0     1 
SMALL
USER_CHARGES
@<TRIPOS>ATOM
  1 N      -2.877000   -0.446000    0.257000 N     1 ARG    -0.3479 ****
  2 H      -3.090000   -0.462000   -0.732000 H     1 ARG     0.2747 ****
  3 CA     -3.335000    0.760000    0.956000 C     1 ARG    -0.2637 ****
  4 HA     -4.368000    0.909000    0.612000 H     1 ARG     0.1560 ****
  5 CB     -3.384000    0.697000    2.491000 C     1 ARG    -0.0007 ****
  6 HB2    -3.711000    1.668000    2.885000 H     1 ARG     0.0327 ****
  7 HB3    -2.390000    0.542000    2.915000 H     1 ARG     0.0327 ****
  8 CG     -4.323000   -0.399000    3.013000 C     1 ARG     0.0390 ****
  9 HG2    -4.020000   -1.377000    2.624000 H     1 ARG     0.0285 ****
 10 HG3    -5.341000   -0.217000    2.647000 H     1 ARG     0.0285 ****
 11 CD     -4.324000   -0.436000    4.544000 C     1 ARG     0.0486 ****
 12 HD2    -4.673000    0.526000    4.932000 H     1 ARG     0.0687 ****
 13 HD3    -3.306000   -0.572000    4.922000 H     1 ARG     0.0687 ****
 14 NE     -5.219000   -1.476000    5.033000 N     1 ARG    -0.5295 ****
 15 HE     -6.172000   -1.362000    4.712000 H     1 ARG     0.3456 ****
 16 CZ     -4.852000   -2.764000    5.211000 C     1 ARG     0.8076 ****
 17 NH1    -3.688000   -3.225000    5.482000 N     1 ARG    -0.8627 ****
 18 HH11   -2.908927   -2.590874    5.587023 H     1 ARG     0.4478 ****
 19 HH12   -3.554845   -4.220411    5.589358 H     1 ARG     0.4478 ****
 20 NH2    -5.874000   -3.631000    5.100000 N     1 ARG    -0.8627 ****
 21 HH21   -6.695000   -3.368000    5.628000 H     1 ARG     0.4478 ****
 22 HH22   -5.544000   -4.544000    5.403000 H     1 ARG     0.4478 ****
 23 C      -2.545000    1.955000    0.372000 C     1 ARG     0.7341 ****
 24 O      -2.939000    2.538000   -0.640000 O     1 ARG    -0.5894 ****
 25 N      -1.309000    2.196000    0.906000 N     2 GLY    -0.4157 ****
 26 H      -1.036000    1.735000    1.779000 H     2 GLY     0.2719 ****
 27 CA     -0.464000    3.297000    0.459000 C     2 GLY    -0.0252 ****
 28 HA2    -0.810000    4.208000    0.956000 H     2 GLY     0.0698 ****
 29 HA3    -0.520000    3.425000   -0.625000 H     2 GLY     0.0698 ****
 30 C       0.963000    2.985000    0.894000 C     2 GLY     0.5973 ****
 31 O       1.580000    3.663000    1.707000 O     2 GLY    -0.5679 ****
 32 N       1.458000    1.802000    0.364000 N     3 ASH    -0.4157 ****
 33 H       1.386000    1.722000   -0.640000 H     3 ASH     0.2719 ****
 34 CA      2.493000    1.070000    1.077000 C     3 ASH     0.0341 ****
 35 HA      3.165000    1.830000    1.501000 H     3 ASH     0.0864 ****
 36 CB      1.920000    0.263000    2.244000 C     3 ASH    -0.0316 ****
 37 HB2     2.690000   -0.351000    2.726000 H     3 ASH     0.0488 ****
 38 HB3     1.154000   -0.427000    1.893000 H     3 ASH     0.0488 ****
 39 CG      1.237000    1.107000    3.292000 C     3 ASH     0.6462 ****
 40 OD1     0.044000    1.387000    3.258000 O     3 ASH    -0.5554 ****
 41 OD2     2.047000    1.547000    4.275000 O     3 ASH    -0.6376 ****
 42 HD2     2.986000    1.307000    4.168000 H     3 ASH     0.4747 ****
 43 C       3.408000    0.199000    0.188000 C     3 ASH     0.5973 ****
 44 O       4.634000    0.375000    0.260000 O     3 ASH    -0.5679 ****
 45 N       3.027000   -0.811000   -0.629000 N     4 TRP    -0.4157 ****
 46 H       3.852000   -1.265000   -1.005000 H     4 TRP     0.2719 ****
 47 CA      1.764000   -1.452000   -1.083000 C     4 TRP    -0.0275 ****
 48 HA      2.122000   -2.272000   -1.727000 H     4 TRP     0.1123 ****
 49 CB      0.922000   -0.574000   -2.012000 C     4 TRP    -0.0050 ****
 50 HB2     0.049000   -1.126000   -2.348000 H     4 TRP     0.0339 ****
 51 HB3     0.526000    0.301000   -1.502000 H     4 TRP     0.0339 ****
 52 CG      1.636000   -0.161000   -3.282000 C     4 TRP    -0.1415 ****
 53 CD1     2.801000    0.576000   -3.388000 C     4 TRP    -0.1638 ****
 54 HD1     3.451000    1.011000   -2.641000 H     4 TRP     0.2062 ****
 55 NE1     3.132000    0.691000   -4.711000 N     4 TRP    -0.3418 ****
 56 HE1     3.945000    1.173000   -5.070000 H     4 TRP     0.3412 ****
 57 CE2     2.213000    0.033000   -5.490000 C     4 TRP     0.1380 ****
 58 CZ2     2.179000   -0.136000   -6.879000 C     4 TRP    -0.2601 ****
 59 HZ2     2.954000    0.272000   -7.520000 H     4 TRP     0.1572 ****
 60 CH2     1.114000   -0.860000   -7.419000 C     4 TRP    -0.1134 ****
 61 HH2     1.067000   -1.020000   -8.494000 H     4 TRP     0.1417 ****
 62 CZ3     0.116000   -1.376000   -6.598000 C     4 TRP    -0.1972 ****
 63 HZ3    -0.708000   -1.931000   -7.041000 H     4 TRP     0.1447 ****
 64 CE3     0.166000   -1.197000   -5.208000 C     4 TRP    -0.2387 ****
 65 HE3    -0.625000   -1.610000   -4.591000 H     4 TRP     0.1700 ****
 66 CD2     1.244000   -0.489000   -4.632000 C     4 TRP     0.1243 ****
 67 C       1.181000   -2.248000    0.107000 C     4 TRP     0.5973 ****
 68 O       1.930000   -2.587000    1.037000 O     4 TRP    -0.5679 ****
 69 N      -0.059000   -2.782000    0.177000 N     5 VAL    -0.4157 ****
 70 H      -0.128000   -3.212000    1.097000 H     5 VAL     0.2719 ****
 71 CA     -1.361000   -2.315000   -0.306000 C     5 VAL    -0.0875 ****
 72 HA     -1.261000   -1.847000   -1.277000 H     5 VAL     0.0969 ****
 73 CB     -2.366000   -3.485000   -0.428000 C     5 VAL     0.2985 ****
 74 HB     -3.318000   -3.092000   -0.811000 H     5 VAL    -0.0297 ****
 75 CG1    -1.875000   -4.546000   -1.425000 C     5 VAL    -0.3192 ****
 76 HG11   -0.819000   -4.796000   -1.276000 H     5 VAL     0.0791 ****
 77 HG12   -1.993000   -4.194000   -2.456000 H     5 VAL     0.0791 ****
 78 HG13   -2.445000   -5.477000   -1.328000 H     5 VAL     0.0791 ****
 79 CG2    -2.665000   -4.147000    0.922000 C     5 VAL    -0.3192 ****
 80 HG21   -1.755000   -4.510000    1.407000 H     5 VAL     0.0791 ****
 81 HG22   -3.334000   -5.005000    0.797000 H     5 VAL     0.0791 ****
 82 HG23   -3.158000   -3.445000    1.600000 H     5 VAL     0.0791 ****
 83 C      -1.830000   -1.233000    0.696000 C     5 VAL     0.5973 ****
 84 O      -1.305000   -1.112000    1.791000 O     5 VAL    -0.5679 ****
@<TRIPOS>BOND
    1    23    24 1
    2    23    25 1
    3    20    21 1
    4    20    22 1
    5    17    18 1
    6    17    19 1
    7    16    17 1
    8    16    20 1
    9    14    15 1
   10    14    16 1
   11    11    12 1
   12    11    13 1
   13    11    14 1
   14     8     9 1
   15     8    10 1
   16     8    11 1
   17     5     6 1
   18     5     7 1
   19     5     8 1
   20     3     4 1
   21     3     5 1
   22     3    23 1
   23     1     2 1
   24     1     3 1
   25     1    83 1
   26    30    31 1
   27    30    32 1
   28    27    28 1
   29    27    29 1
   30    27    30 1
   31    25    26 1
   32    25    27 1
   33    43    44 1
   34    43    45 1
   35    41    42 1
   36    39    40 1
   37    39    41 1
   38    36    37 1
   39    36    38 1
   40    36    39 1
   41    34    35 1
   42    34    36 1
   43    34    43 1
   44    32    33 1
   45    32    34 1
   46    67    68 1
   47    67    69 1
   48    64    65 1
   49    64    66 1
   50    62    63 1
   51    62    64 1
   52    60    61 1
   53    60    62 1
   54    58    59 1
   55    58    60 1
   56    57    58 1
   57    57    66 1
   58    55    56 1
   59    55    57 1
   60    53    54 1
   61    53    55 1
   62    52    53 1
   63    52    66 1
   64    49    50 1
   65    49    51 1
   66    49    52 1
   67    47    48 1
   68    47    49 1
   69    47    67 1
   70    45    46 1
   71    45    47 1
   72    83    84 1
   73    79    80 1
   74    79    81 1
   75    79    82 1
   76    75    76 1
   77    75    77 1
   78    75    78 1
   79    73    74 1
   80    73    75 1
   81    73    79 1
   82    71    72 1
   83    71    73 1
   84    71    83 1
   85    69    70 1
   86    69    71 1
@<TRIPOS>SUBSTRUCTURE
      1  ARG              1 ****               0 ****  **** 
      2  GLY             25 ****               0 ****  **** 
      3  ASH             32 ****               0 ****  **** 
      4  TRP             45 ****               0 ****  **** 
      5  VAL             69 ****               0 ****  **** 
