@<TRIPOS>MOLECULE
default_name
   70    71     5     0     1 
SMALL
USER_CHARGES
@<TRIPOS>ATOM
  1 N       3.357000    0.235000    0.141000 N     1 SER    -0.4157 ****
  2 H       2.889804    0.490177    0.999320 H     1 SER     0.2719 ****
  3 CA      2.902000   -0.966000   -0.568000 C     1 SER    -0.0249 ****
  4 HA      2.574791   -0.721681   -1.578615 H     1 SER     0.0843 ****
  5 CB      4.077000   -1.940000   -0.657000 C     1 SER     0.2117 ****
  6 HB2     4.404565   -2.180569    0.354398 H     1 SER     0.0352 ****
  7 HB3     3.736648   -2.848502   -1.153874 H     1 SER     0.0352 ****
  8 OG      5.173000   -1.374000   -1.393000 O     1 SER    -0.6546 ****
  9 HG      5.893471   -2.007270   -1.431611 H     1 SER     0.4275 ****
 10 C       1.602000   -1.439000    0.185000 C     1 SER     0.5973 ****
 11 O       1.345000   -1.096000    1.343000 O     1 SER    -0.5679 ****
 12 N       0.779000   -2.309000   -0.528000 N     2 PRO    -0.2548 ****
 13 CD      1.156000   -3.705000   -0.204000 C     2 PRO     0.0192 ****
 14 HD2     1.827890   -3.671876    0.653652 H     2 PRO     0.0391 ****
 15 HD3     1.687276   -4.109125   -1.065701 H     2 PRO     0.0391 ****
 16 CG     -0.136000   -4.464000    0.092000 C     2 PRO     0.0189 ****
 17 HG2     0.015373   -5.224519    0.858026 H     2 PRO     0.0213 ****
 18 HG3    -0.538431   -4.930036   -0.807423 H     2 PRO     0.0213 ****
 19 CB     -1.047000   -3.360000    0.582000 C     2 PRO    -0.0070 ****
 20 HB2    -1.367720   -2.901310    1.517329 H     2 PRO     0.0253 ****
 21 HB3    -1.841879   -4.001227    0.201086 H     2 PRO     0.0253 ****
 22 CA     -0.716000   -2.273000   -0.444000 C     2 PRO    -0.0266 ****
 23 HA     -0.819072   -2.956274   -1.286977 H     2 PRO     0.0641 ****
 24 C      -1.912000   -1.268000   -0.440000 C     2 PRO     0.5896 ****
 25 O      -3.013000   -1.667000   -0.839000 O     2 PRO    -0.5748 ****
 26 N      -1.819000   -0.080000    0.229000 N     3 LEU    -0.4157 ****
 27 H      -0.942833    0.230497    0.623997 H     3 LEU     0.2719 ****
 28 CA     -3.047000    0.732000    0.500000 C     3 LEU    -0.0518 ****
 29 HA     -3.936780    0.233078    0.115985 H     3 LEU     0.0922 ****
 30 CB     -3.191000    0.890000    2.026000 C     3 LEU    -0.1102 ****
 31 HB2    -3.217905   -0.134633    2.396813 H     3 LEU     0.0457 ****
 32 HB3    -2.274782    1.374198    2.363930 H     3 LEU     0.0457 ****
 33 CG     -4.412000    1.665000    2.567000 C     3 LEU     0.3531 ****
 34 HG     -4.383037    2.666793    2.138429 H     3 LEU    -0.0361 ****
 35 CD1    -5.747000    1.002000    2.223000 C     3 LEU    -0.4121 ****
 36 HD11   -5.776895    0.000272    2.651656 H     3 LEU     0.1000 ****
 37 HD12   -6.564321    1.596113    2.631800 H     3 LEU     0.1000 ****
 38 HD13   -5.852371    0.936531    1.140082 H     3 LEU     0.1000 ****
 39 CD2    -4.288000    1.776000    4.095000 C     3 LEU    -0.4121 ****
 40 HD21   -3.370704    2.307686    4.347938 H     3 LEU     0.1000 ****
 41 HD22   -5.144546    2.321631    4.490875 H     3 LEU     0.1000 ****
 42 HD23   -4.260689    0.777512    4.531320 H     3 LEU     0.1000 ****
 43 C      -2.866000    2.025000   -0.316000 C     3 LEU     0.5973 ****
 44 O      -3.439000    2.247000   -1.379000 O     3 LEU    -0.5679 ****
 45 N      -1.850000    2.822000    0.152000 N     4 ASN    -0.4157 ****
 46 H      -1.604295    2.781170    1.130806 H     4 ASN     0.2719 ****
 47 CA     -1.083000    3.718000   -0.721000 C     4 ASN     0.0143 ****
 48 HA     -1.005791    3.264444   -1.709142 H     4 ASN     0.1048 ****
 49 CB     -1.728000    5.080000   -0.863000 C     4 ASN    -0.2041 ****
 50 HB2    -2.742163    5.005394   -1.255436 H     4 ASN     0.0797 ****
 51 HB3    -1.750021    5.576064    0.107328 H     4 ASN     0.0797 ****
 52 CG     -0.905000    5.913000   -1.811000 C     4 ASN     0.7130 ****
 53 OD1    -0.006000    5.478000   -2.519000 O     4 ASN    -0.5931 ****
 54 ND2    -1.258000    7.231000   -1.850000 N     4 ASN    -0.9191 ****
 55 HD21   -0.760701    7.866052   -2.457867 H     4 ASN     0.4196 ****
 56 HD22   -2.014912    7.565262   -1.270816 H     4 ASN     0.4196 ****
 57 C       0.252000    3.815000    0.035000 C     4 ASN     0.5973 ****
 58 O       0.417000    4.562000    0.993000 O     4 ASN    -0.5679 ****
 59 N       1.091000    2.756000   -0.235000 N     5 ASP    -0.5163 ****
 60 H       0.863038    2.134763   -0.998018 H     5 ASP     0.2936 ****
 61 CA      2.285000    2.455000    0.580000 C     5 ASP     0.0381 ****
 62 HA      2.879185    3.353420    0.746987 H     5 ASP     0.0880 ****
 63 CB      1.816000    1.920000    1.935000 C     5 ASP    -0.0303 ****
 64 HB2     1.271569    2.750040    2.385253 H     5 ASP    -0.0122 ****
 65 HB3     1.146984    1.067206    1.819848 H     5 ASP    -0.0122 ****
 66 CG      2.964000    1.538000    2.819000 C     5 ASP     0.7994 ****
 67 OD1     3.942000    2.242000    3.013000 O     5 ASP    -0.8014 ****
 68 OD2     2.867000    0.285000    3.321000 O     5 ASP    -0.8014 ****
 69 C       2.994000    1.454000   -0.357000 C     5 ASP     0.5366 ****
 70 O       3.044000    1.659000   -1.578000 O     5 ASP    -0.5819 ****
@<TRIPOS>BOND
    1    10    11 1
    2    10    12 1
    3     8     9 1
    4     5     6 1
    5     5     7 1
    6     5     8 1
    7     3     4 1
    8     3     5 1
    9     3    10 1
   10     1     2 1
   11     1     3 1
   12     1    69 1
   13    24    25 1
   14    24    26 1
   15    22    23 1
   16    22    24 1
   17    19    20 1
   18    19    21 1
   19    19    22 1
   20    16    17 1
   21    16    18 1
   22    16    19 1
   23    13    14 1
   24    13    15 1
   25    13    16 1
   26    12    13 1
   27    12    22 1
   28    43    44 1
   29    43    45 1
   30    39    40 1
   31    39    41 1
   32    39    42 1
   33    35    36 1
   34    35    37 1
   35    35    38 1
   36    33    34 1
   37    33    35 1
   38    33    39 1
   39    30    31 1
   40    30    32 1
   41    30    33 1
   42    28    29 1
   43    28    30 1
   44    28    43 1
   45    26    27 1
   46    26    28 1
   47    57    58 1
   48    57    59 1
   49    54    55 1
   50    54    56 1
   51    52    53 1
   52    52    54 1
   53    49    50 1
   54    49    51 1
   55    49    52 1
   56    47    48 1
   57    47    49 1
   58    47    57 1
   59    45    46 1
   60    45    47 1
   61    69    70 1
   62    66    67 1
   63    66    68 1
   64    63    64 1
   65    63    65 1
   66    63    66 1
   67    61    62 1
   68    61    63 1
   69    61    69 1
   70    59    60 1
   71    59    61 1
@<TRIPOS>SUBSTRUCTURE
      1  SER              1 ****               0 ****  **** 
      2  PRO             12 ****               0 ****  **** 
      3  LEU             26 ****               0 ****  **** 
      4  ASN             45 ****               0 ****  **** 
      5  ASP             59 ****               0 ****  **** 
