@<TRIPOS>MOLECULE
default_name
   80    81     5     0     1 
SMALL
USER_CHARGES
@<TRIPOS>ATOM
  1 N      -2.797000   -0.192000    0.719000 N     1 VAL    -0.4157 ****
  2 H      -2.864000   -0.356000   -0.274000 H     1 VAL     0.2719 ****
  3 CA     -2.997000    1.196000    1.129000 C     1 VAL    -0.0875 ****
  4 HA     -3.090000    1.221000    2.223000 H     1 VAL     0.0969 ****
  5 CB     -4.270000    1.811000    0.501000 C     1 VAL     0.2985 ****
  6 HB     -4.368000    2.839000    0.871000 H     1 VAL    -0.0297 ****
  7 CG1    -5.529000    1.042000    0.926000 C     1 VAL    -0.3192 ****
  8 HG11   -5.507000    0.004000    0.576000 H     1 VAL     0.0791 ****
  9 HG12   -6.428000    1.509000    0.508000 H     1 VAL     0.0791 ****
 10 HG13   -5.634000    1.030000    2.015000 H     1 VAL     0.0791 ****
 11 CG2    -4.221000    1.882000   -1.030000 C     1 VAL    -0.3192 ****
 12 HG21   -4.252000    0.887000   -1.485000 H     1 VAL     0.0791 ****
 13 HG22   -3.319000    2.389000   -1.381000 H     1 VAL     0.0791 ****
 14 HG23   -5.081000    2.443000   -1.411000 H     1 VAL     0.0791 ****
 15 C      -1.699000    1.970000    0.752000 C     1 VAL     0.5973 ****
 16 O      -0.849000    1.503000   -0.010000 O     1 VAL    -0.5679 ****
 17 N      -1.562000    3.207000    1.333000 N     2 PHE    -0.4157 ****
 18 H      -2.132000    3.418000    2.144000 H     2 PHE     0.2719 ****
 19 CA     -0.439000    4.117000    1.064000 C     2 PHE    -0.0024 ****
 20 HA     -0.740000    5.070000    1.515000 H     2 PHE     0.0978 ****
 21 CB     -0.140000    4.370000   -0.433000 C     2 PHE    -0.0343 ****
 22 HB2     0.684000    5.092000   -0.513000 H     2 PHE     0.0295 ****
 23 HB3     0.235000    3.452000   -0.903000 H     2 PHE     0.0295 ****
 24 CG     -1.293000    4.897000   -1.269000 C     2 PHE     0.0118 ****
 25 CD1    -2.287000    5.731000   -0.739000 C     2 PHE    -0.1256 ****
 26 HD1    -2.277000    6.028000    0.306000 H     2 PHE     0.1330 ****
 27 CE1    -3.321000    6.215000   -1.542000 C     2 PHE    -0.1704 ****
 28 HE1    -4.086000    6.856000   -1.111000 H     2 PHE     0.1430 ****
 29 CZ     -3.367000    5.891000   -2.894000 C     2 PHE    -0.1072 ****
 30 HZ     -4.165000    6.279000   -3.521000 H     2 PHE     0.1297 ****
 31 CE2    -2.373000    5.085000   -3.445000 C     2 PHE    -0.1704 ****
 32 HE2    -2.397000    4.845000   -4.506000 H     2 PHE     0.1430 ****
 33 CD2    -1.343000    4.592000   -2.640000 C     2 PHE    -0.1256 ****
 34 HD2    -0.576000    3.969000   -3.095000 H     2 PHE     0.1330 ****
 35 C       0.824000    3.701000    1.854000 C     2 PHE     0.5973 ****
 36 O       1.207000    4.314000    2.849000 O     2 PHE    -0.5679 ****
 37 N       1.475000    2.585000    1.402000 N     3 ASH    -0.4157 ****
 38 H       1.029000    2.038000    0.661000 H     3 ASH     0.2719 ****
 39 CA      2.687000    2.048000    2.038000 C     3 ASH     0.0341 ****
 40 HA      2.524000    2.010000    3.122000 H     3 ASH     0.0864 ****
 41 CB      3.913000    2.889000    1.695000 C     3 ASH    -0.0316 ****
 42 HB2     4.099000    2.899000    0.614000 H     3 ASH     0.0488 ****
 43 HB3     3.786000    3.937000    1.989000 H     3 ASH     0.0488 ****
 44 CG      5.148000    2.359000    2.378000 C     3 ASH     0.6462 ****
 45 OD1     6.101000    1.880000    1.792000 O     3 ASH    -0.5554 ****
 46 OD2     5.126000    2.494000    3.723000 O     3 ASH    -0.6376 ****
 47 HD2     4.357000    2.980000    4.082000 H     3 ASH     0.4747 ****
 48 C       2.791000    0.627000    1.471000 C     3 ASH     0.5973 ****
 49 O       3.333000    0.391000    0.394000 O     3 ASH    -0.5679 ****
 50 N       1.996000   -0.299000    2.122000 N     4 GLY    -0.4157 ****
 51 H       1.390000    0.010000    2.879000 H     4 GLY     0.2719 ****
 52 CA      1.511000   -1.404000    1.324000 C     4 GLY    -0.0252 ****
 53 HA2     2.348000   -1.889000    0.811000 H     4 GLY     0.0698 ****
 54 HA3     0.887000   -0.925000    0.581000 H     4 GLY     0.0698 ****
 55 C       0.744000   -2.471000    2.096000 C     4 GLY     0.5973 ****
 56 O       1.180000   -2.948000    3.145000 O     4 GLY    -0.5679 ****
 57 N      -0.459000   -2.940000    1.632000 N     5 ARG    -0.3479 ****
 58 H      -0.852000   -3.571000    2.321000 H     5 ARG     0.2747 ****
 59 CA     -1.440000   -2.279000    0.757000 C     5 ARG    -0.2637 ****
 60 HA     -2.321000   -2.934000    0.793000 H     5 ARG     0.1560 ****
 61 CB     -1.043000   -2.134000   -0.725000 C     5 ARG    -0.0007 ****
 62 HB2    -1.867000   -1.684000   -1.289000 H     5 ARG     0.0327 ****
 63 HB3    -0.220000   -1.433000   -0.846000 H     5 ARG     0.0327 ****
 64 CG     -0.708000   -3.460000   -1.411000 C     5 ARG     0.0390 ****
 65 HG2    -1.589000   -4.112000   -1.372000 H     5 ARG     0.0285 ****
 66 HG3     0.100000   -3.971000   -0.875000 H     5 ARG     0.0285 ****
 67 CD     -0.303000   -3.274000   -2.880000 C     5 ARG     0.0486 ****
 68 HD2    -1.099000   -2.768000   -3.440000 H     5 ARG     0.0687 ****
 69 HD3    -0.171000   -4.269000   -3.317000 H     5 ARG     0.0687 ****
 70 NE      0.923000   -2.508000   -2.968000 N     5 ARG    -0.5295 ****
 71 HE      0.845000   -1.552000   -2.637000 H     5 ARG     0.3456 ****
 72 CZ      1.830000   -2.579000   -3.961000 C     5 ARG     0.8076 ****
 73 NH1     1.837000   -3.336000   -4.995000 N     5 ARG    -0.8627 ****
 74 HH11    1.083763   -3.992738   -5.141388 H     5 ARG     0.4478 ****
 75 HH12    2.595721   -3.272272   -5.658612 H     5 ARG     0.4478 ****
 76 NH2     2.835000   -1.713000   -3.751000 N     5 ARG    -0.8627 ****
 77 HH21    3.189000   -1.740000   -2.799000 H     5 ARG     0.4478 ****
 78 HH22    3.592000   -1.905000   -4.404000 H     5 ARG     0.4478 ****
 79 C      -1.893000   -0.955000    1.432000 C     5 ARG     0.7341 ****
 80 O      -1.482000   -0.592000    2.535000 O     5 ARG    -0.5894 ****
@<TRIPOS>BOND
    1    15    16 1
    2    15    17 1
    3    11    12 1
    4    11    13 1
    5    11    14 1
    6     7     8 1
    7     7     9 1
    8     7    10 1
    9     5     6 1
   10     5     7 1
   11     5    11 1
   12     3     4 1
   13     3     5 1
   14     3    15 1
   15     1     2 1
   16     1     3 1
   17     1    79 1
   18    35    36 1
   19    35    37 1
   20    33    34 1
   21    31    32 1
   22    31    33 1
   23    29    30 1
   24    29    31 1
   25    27    28 1
   26    27    29 1
   27    25    26 1
   28    25    27 1
   29    24    25 1
   30    24    33 1
   31    21    22 1
   32    21    23 1
   33    21    24 1
   34    19    20 1
   35    19    21 1
   36    19    35 1
   37    17    18 1
   38    17    19 1
   39    48    49 1
   40    48    50 1
   41    46    47 1
   42    44    45 1
   43    44    46 1
   44    41    42 1
   45    41    43 1
   46    41    44 1
   47    39    40 1
   48    39    41 1
   49    39    48 1
   50    37    38 1
   51    37    39 1
   52    55    56 1
   53    55    57 1
   54    52    53 1
   55    52    54 1
   56    52    55 1
   57    50    51 1
   58    50    52 1
   59    79    80 1
   60    76    77 1
   61    76    78 1
   62    73    74 1
   63    73    75 1
   64    72    73 1
   65    72    76 1
   66    70    71 1
   67    70    72 1
   68    67    68 1
   69    67    69 1
   70    67    70 1
   71    64    65 1
   72    64    66 1
   73    64    67 1
   74    61    62 1
   75    61    63 1
   76    61    64 1
   77    59    60 1
   78    59    61 1
   79    59    79 1
   80    57    58 1
   81    57    59 1
@<TRIPOS>SUBSTRUCTURE
      1  VAL              1 ****               0 ****  **** 
      2  PHE             17 ****               0 ****  **** 
      3  ASH             37 ****               0 ****  **** 
      4  GLY             50 ****               0 ****  **** 
      5  ARG             57 ****               0 ****  **** 
