@<TRIPOS>MOLECULE
DMS
   10     9     1     0     0
SMALL
bcc


@<TRIPOS>ATOM
      1 C1           1.3520    -0.7890     0.1800 c3         1 DMS      -0.282583
      2 H11          1.3360    -1.7630    -0.2940 h1         1 DMS       0.126333
      3 H12          1.2770    -0.8840     1.2560 h1         1 DMS       0.126333
      4 H13          2.2750    -0.2810    -0.0680 h1         1 DMS       0.126333
      5 S2           0.0000     0.2230    -0.4330 s4         1 DMS       0.316100
      6 O3           0.0000     1.4700     0.3730 o          1 DMS      -0.508933
      7 C4          -1.3520    -0.7890     0.1800 c3         1 DMS      -0.282583
      8 H41         -2.2750    -0.2810    -0.0680 h1         1 DMS       0.126333
      9 H42         -1.3360    -1.7630    -0.2940 h1         1 DMS       0.126333
     10 H43         -1.2770    -0.8840     1.2560 h1         1 DMS       0.126333
@<TRIPOS>BOND
     1     1     2 1   
     2     1     3 1   
     3     1     4 1   
     4     1     5 1   
     5     5     6 2   
     6     5     7 1   
     7     7     8 1   
     8     7     9 1   
     9     7    10 1   
@<TRIPOS>SUBSTRUCTURE
     1 DMS         1 TEMP              0 ****  ****    0 ROOT
