@<TRIPOS>MOLECULE
default_name
  101   104     7     0     1 
SMALL
USER_CHARGES
@<TRIPOS>ATOM
  1 N      28.510000   10.960000    0.980000 N     1 HIP    -0.3479 ****
  2 H      27.930000   10.210000    0.630000 H     1 HIP     0.2747 ****
  3 CA     29.950000   10.830000    0.950000 C     1 HIP    -0.1354 ****
  4 HA     30.440000   11.800000    0.850000 H     1 HIP     0.1212 ****
  5 CB     30.330000    9.910000   -0.200000 C     1 HIP    -0.0414 ****
  6 HB2    29.800000    8.990000    0.040000 H     1 HIP     0.0810 ****
  7 HB3    31.380000    9.630000   -0.210000 H     1 HIP     0.0810 ****
  8 CG     29.950000   10.430000   -1.560000 C     1 HIP    -0.0012 ****
  9 ND1    28.730000   10.300000   -2.200000 N     1 HIP    -0.1513 ****
 10 HD1    27.970000    9.750000   -1.810000 H     1 HIP     0.3866 ****
 11 CE1    28.890000   10.880000   -3.400000 C     1 HIP    -0.0170 ****
 12 HE1    28.070000   10.790000   -4.090000 H     1 HIP     0.2681 ****
 13 NE2    30.120000   11.390000   -3.580000 N     1 HIP    -0.1718 ****
 14 HE2    30.480000   11.740000   -4.460000 H     1 HIP     0.3911 ****
 15 CD2    30.790000   11.130000   -2.400000 C     1 HIP    -0.1141 ****
 16 HD2    31.850000   11.310000   -2.300000 H     1 HIP     0.2317 ****
 17 C      30.400000   10.250000    2.290000 C     1 HIP     0.7341 ****
 18 O      30.410000    9.030000    2.470000 O     1 HIP    -0.5894 ****
 19 N      30.770000   11.090000    3.250000 N     2 PRO    -0.2548 ****
 20 CD     30.500000   12.510000    3.340000 C     2 PRO     0.0192 ****
 21 HD2    29.490000   12.660000    2.950000 H     2 PRO     0.0391 ****
 22 HD3    31.210000   13.020000    2.680000 H     2 PRO     0.0391 ****
 23 CG     30.670000   12.990000    4.770000 C     2 PRO     0.0189 ****
 24 HG2    29.800000   12.820000    5.400000 H     2 PRO     0.0213 ****
 25 HG3    31.000000   14.010000    4.960000 H     2 PRO     0.0213 ****
 26 CB     31.790000   12.050000    5.230000 C     2 PRO    -0.0070 ****
 27 HB2    31.810000   11.850000    6.300000 H     2 PRO     0.0253 ****
 28 HB3    32.780000   12.480000    5.060000 H     2 PRO     0.0253 ****
 29 CA     31.590000   10.780000    4.410000 C     2 PRO    -0.0266 ****
 30 HA     32.560000   10.480000    4.010000 H     2 PRO     0.0641 ****
 31 C      31.200000    9.580000    5.260000 C     2 PRO     0.5896 ****
 32 O      32.080000    8.820000    5.670000 O     2 PRO    -0.5748 ****
 33 N      29.930000    9.270000    5.510000 N     3 ASP    -0.5163 ****
 34 H      29.160000    9.780000    5.090000 H     3 ASP     0.2936 ****
 35 CA     29.580000    8.050000    6.210000 C     3 ASP     0.0381 ****
 36 HA     28.500000    8.040000    6.130000 H     3 ASP     0.0880 ****
 37 CB     29.780000    8.210000    7.720000 C     3 ASP    -0.0303 ****
 38 HB2    30.860000    8.160000    7.790000 H     3 ASP    -0.0122 ****
 39 HB3    29.420000    7.410000    8.360000 H     3 ASP    -0.0122 ****
 40 CG     29.090000    9.450000    8.270000 C     3 ASP     0.7994 ****
 41 OD1    28.170000   10.030000    7.650000 O     3 ASP    -0.8014 ****
 42 OD2    29.220000    9.650000    9.490000 O     3 ASP    -0.8014 ****
 43 C      30.010000    6.710000    5.610000 C     3 ASP     0.5366 ****
 44 O      30.320000    5.780000    6.340000 O     3 ASP    -0.5819 ****
 45 N      30.030000    6.600000    4.280000 N     4 GLN    -0.4157 ****
 46 H      29.930000    7.460000    3.760000 H     4 GLN     0.2719 ****
 47 CA     30.220000    5.420000    3.470000 C     4 GLN    -0.0031 ****
 48 HA     29.920000    4.600000    4.120000 H     4 GLN     0.0850 ****
 49 CB     31.710000    5.160000    3.230000 C     4 GLN    -0.0036 ****
 50 HB2    31.880000    4.120000    2.950000 H     4 GLN     0.0171 ****
 51 HB3    32.190000    5.250000    4.210000 H     4 GLN     0.0171 ****
 52 CG     32.430000    6.120000    2.290000 C     4 GLN    -0.0645 ****
 53 HG2    31.810000    6.940000    1.930000 H     4 GLN     0.0352 ****
 54 HG3    32.780000    5.550000    1.440000 H     4 GLN     0.0352 ****
 55 CD     33.740000    6.660000    2.850000 C     4 GLN     0.6951 ****
 56 OE1    34.840000    6.390000    2.380000 O     4 GLN    -0.6086 ****
 57 NE2    33.710000    7.420000    3.940000 N     4 GLN    -0.9407 ****
 58 HE21   32.800000    7.680000    4.310000 H     4 GLN     0.4251 ****
 59 HE22   34.590000    7.410000    4.430000 H     4 GLN     0.4251 ****
 60 C      29.370000    5.250000    2.230000 C     4 GLN     0.5973 ****
 61 O      29.180000    4.140000    1.720000 O     4 GLN    -0.5679 ****
 62 N      28.900000    6.320000    1.590000 N     5 SER    -0.4157 ****
 63 H      29.210000    7.220000    1.930000 H     5 SER     0.2719 ****
 64 CA     27.910000    6.320000    0.530000 C     5 SER    -0.0249 ****
 65 HA     27.260000    5.470000    0.720000 H     5 SER     0.0843 ****
 66 CB     28.560000    6.170000   -0.840000 C     5 SER     0.2117 ****
 67 HB2    27.880000    5.610000   -1.480000 H     5 SER     0.0352 ****
 68 HB3    29.470000    5.580000   -0.760000 H     5 SER     0.0352 ****
 69 OG     28.950000    7.360000   -1.500000 O     5 SER    -0.6546 ****
 70 HG     29.620000    7.110000   -2.140000 H     5 SER     0.4275 ****
 71 C      27.000000    7.530000    0.610000 C     5 SER     0.5973 ****
 72 O      27.350000    8.420000    1.380000 O     5 SER    -0.5679 ****
 73 N      25.910000    7.590000   -0.170000 N     6 GLU    -0.5163 ****
 74 H      25.830000    7.010000   -0.990000 H     6 GLU     0.2936 ****
 75 CA     24.900000    8.570000    0.160000 C     6 GLU     0.0397 ****
 76 HA     24.660000    8.520000    1.220000 H     6 GLU     0.1105 ****
 77 CB     23.570000    8.290000   -0.550000 C     6 GLU     0.0560 ****
 78 HB2    23.310000    7.250000   -0.380000 H     6 GLU    -0.0173 ****
 79 HB3    23.710000    8.450000   -1.620000 H     6 GLU    -0.0173 ****
 80 CG     22.480000    9.190000    0.010000 C     6 GLU     0.0136 ****
 81 HG2    22.870000   10.210000    0.000000 H     6 GLU    -0.0425 ****
 82 HG3    22.160000    8.970000    1.030000 H     6 GLU    -0.0425 ****
 83 CD     21.290000    9.110000   -0.930000 C     6 GLU     0.8054 ****
 84 OE1    21.410000    9.760000   -1.990000 O     6 GLU    -0.8188 ****
 85 OE2    20.330000    8.370000   -0.620000 O     6 GLU    -0.8188 ****
 86 C      25.550000    9.900000   -0.190000 C     6 GLU     0.5366 ****
 87 O      26.120000   10.050000   -1.260000 O     6 GLU    -0.5819 ****
 88 N      25.720000   10.850000    0.730000 N     7 PRO    -0.2548 ****
 89 CD     25.070000   10.880000    2.030000 C     7 PRO     0.0192 ****
 90 HD2    25.740000   10.480000    2.780000 H     7 PRO     0.0391 ****
 91 HD3    24.150000   10.290000    2.020000 H     7 PRO     0.0391 ****
 92 CG     24.790000   12.340000    2.380000 C     7 PRO     0.0189 ****
 93 HG2    24.960000   12.450000    3.450000 H     7 PRO     0.0213 ****
 94 HG3    23.890000   12.690000    1.880000 H     7 PRO     0.0213 ****
 95 CB     25.900000   13.040000    1.600000 C     7 PRO    -0.0070 ****
 96 HB2    26.690000   13.310000    2.310000 H     7 PRO     0.0253 ****
 97 HB3    25.450000   13.940000    1.190000 H     7 PRO     0.0253 ****
 98 CA     26.360000   12.120000    0.480000 C     7 PRO    -0.0266 ****
 99 HA     25.990000   12.510000   -0.470000 H     7 PRO     0.0641 ****
100 C      27.870000   11.970000    0.390000 C     7 PRO     0.5896 ****
101 O      28.540000   12.790000   -0.240000 O     7 PRO    -0.5748 ****
@<TRIPOS>BOND
    1    17    18 1
    2    17    19 1
    3    15    16 1
    4    13    14 1
    5    13    15 1
    6    11    12 1
    7    11    13 1
    8     9    10 1
    9     9    11 1
   10     8     9 1
   11     8    15 1
   12     5     6 1
   13     5     7 1
   14     5     8 1
   15     3     4 1
   16     3     5 1
   17     3    17 1
   18     1     2 1
   19     1     3 1
   20     1   100 1
   21    31    32 1
   22    31    33 1
   23    29    30 1
   24    29    31 1
   25    26    27 1
   26    26    28 1
   27    26    29 1
   28    23    24 1
   29    23    25 1
   30    23    26 1
   31    20    21 1
   32    20    22 1
   33    20    23 1
   34    19    20 1
   35    19    29 1
   36    43    44 1
   37    43    45 1
   38    40    41 1
   39    40    42 1
   40    37    38 1
   41    37    39 1
   42    37    40 1
   43    35    36 1
   44    35    37 1
   45    35    43 1
   46    33    34 1
   47    33    35 1
   48    60    61 1
   49    60    62 1
   50    57    58 1
   51    57    59 1
   52    55    56 1
   53    55    57 1
   54    52    53 1
   55    52    54 1
   56    52    55 1
   57    49    50 1
   58    49    51 1
   59    49    52 1
   60    47    48 1
   61    47    49 1
   62    47    60 1
   63    45    46 1
   64    45    47 1
   65    71    72 1
   66    71    73 1
   67    69    70 1
   68    66    67 1
   69    66    68 1
   70    66    69 1
   71    64    65 1
   72    64    66 1
   73    64    71 1
   74    62    63 1
   75    62    64 1
   76    86    87 1
   77    86    88 1
   78    83    84 1
   79    83    85 1
   80    80    81 1
   81    80    82 1
   82    80    83 1
   83    77    78 1
   84    77    79 1
   85    77    80 1
   86    75    76 1
   87    75    77 1
   88    75    86 1
   89    73    74 1
   90    73    75 1
   91   100   101 1
   92    98    99 1
   93    98   100 1
   94    95    96 1
   95    95    97 1
   96    95    98 1
   97    92    93 1
   98    92    94 1
   99    92    95 1
  100    89    90 1
  101    89    91 1
  102    89    92 1
  103    88    89 1
  104    88    98 1
@<TRIPOS>SUBSTRUCTURE
      1  HIP              1 ****               0 ****  **** 
      2  PRO             19 ****               0 ****  **** 
      3  ASP             33 ****               0 ****  **** 
      4  GLN             45 ****               0 ****  **** 
      5  SER             62 ****               0 ****  **** 
      6  GLU             73 ****               0 ****  **** 
      7  PRO             88 ****               0 ****  **** 
